Circuit: * C:\Users\joaqu\Desktop\Circuit-Design\BUCK\BUCK_v7.asc

WARNING: Node N009 is floating.
WARNING: Node N006 is floating.

WARNING: Less than two connections to node N009.  This node is used by CBOOT.
WARNING: Less than two connections to node N006.  This node is used by DBOOT.
WARNING: Less than two connections to node NC_01.  This node is used by V4.
WARNING: Less than two connections to node NC_02.  This node is used by V5.
WARNING: Less than two connections to node NC_03.  This node is used by R7.
Instance "m:u8:_gd_template:_lo_stage:_lo_nmos": Length shorter than recommended for a level 1 MOSFET.
Instance "m:u8:_gd_template:_lo_stage:_lo_pmos": Length shorter than recommended for a level 1 MOSFET.
Instance "m:u8:_gd_template:_ho_stage:_ho_nmos": Length shorter than recommended for a level 1 MOSFET.
Instance "m:u8:_gd_template:_ho_stage:_ho_pmos": Length shorter than recommended for a level 1 MOSFET.
Direct Newton iteration failed to find .op point.  (Use ".option noopiter" to skip.)
Starting Gmin stepping
Gmin = 10
Gmin = 1.07374
Gmin = 0.115292
Gmin = 0.0123794
Gmin = 0.00132923
Gmin = 0.000142725
Gmin = 1.5325e-005
Gmin = 1.6455e-006
Gmin = 1.76685e-007
Gmin = 1.89714e-008
Gmin = 2.03704e-009
Gmin = 2.18725e-010
Gmin = 2.34854e-011
Gmin = 2.52173e-012
Gmin = 2.70769e-013
Gmin = 0
Gmin stepping succeeded in finding the operating point.

Ignoring empty pin current: Ix(u1:1)
Ignoring empty pin current: Ix(u1:2)
Ignoring empty pin current: Ix(u1:3)
Ignoring empty pin current: Ix(u1:4)
Ignoring empty pin current: Ix(u1:5)
Ignoring empty pin current: Ix(u1:1)
Ignoring empty pin current: Ix(u1:2)
Ignoring empty pin current: Ix(u1:3)
Ignoring empty pin current: Ix(u1:4)
Ignoring empty pin current: Ix(u1:5)
Heightened Def Con from 4.54209e-006 to 4.54246e-006
Heightened Def Con from 1.42002e-005 to 1.42011e-005
Heightened Def Con from 2.64715e-005 to 2.64734e-005
Heightened Def Con from 2.65469e-005 to 2.65477e-005
Heightened Def Con from 3.00315e-005 to 3.00322e-005
Heightened Def Con from 3.01036e-005 to 3.01045e-005
Heightened Def Con from 3.01615e-005 to 3.01634e-005
Heightened Def Con from 3.02404e-005 to 3.02454e-005
Heightened Def Con from 3.50341e-005 to 3.50347e-005
Heightened Def Con from 3.51102e-005 to 3.51111e-005
Heightened Def Con from 3.5148e-005 to 3.51498e-005
Heightened Def Con from 3.5232e-005 to 3.52327e-005
Heightened Def Con from 4.02237e-005 to 4.02244e-005
Heightened Def Con from 4.50581e-005 to 4.50587e-005
Heightened Def Con from 4.52125e-005 to 4.52133e-005
Heightened Def Con from 5.00689e-005 to 5.00696e-005
Heightened Def Con from 5.01957e-005 to 5.01965e-005
Heightened Def Con from 5.50823e-005 to 5.5083e-005
Heightened Def Con from 6.98188e-005 to 6.98194e-005
Heightened Def Con from 6.98907e-005 to 6.98916e-005
Heightened Def Con from 7.05802e-005 to 7.05821e-005
Heightened Def Con from 7.06549e-005 to 7.06558e-005
Heightened Def Con from 7.3941e-005 to 7.39416e-005
Heightened Def Con from 7.40132e-005 to 7.40141e-005
Heightened Def Con from 7.63414e-005 to 7.63432e-005
Heightened Def Con from 7.64156e-005 to 7.64165e-005
Heightened Def Con from 7.97782e-005 to 7.97789e-005
Heightened Def Con from 7.9851e-005 to 7.98519e-005
Heightened Def Con from 8.04129e-005 to 8.04148e-005
Heightened Def Con from 8.4618e-005 to 8.46186e-005
Heightened Def Con from 8.46918e-005 to 8.46926e-005
Heightened Def Con from 8.58194e-005 to 8.58202e-005
Heightened Def Con from 8.95164e-005 to 8.9517e-005
Heightened Def Con from 8.95894e-005 to 8.95902e-005
Heightened Def Con from 9.0764e-005 to 9.07659e-005
Heightened Def Con from 9.08401e-005 to 9.0841e-005
Heightened Def Con from 9.46992e-005 to 9.46998e-005
Heightened Def Con from 9.47712e-005 to 9.47721e-005
Heightened Def Con from 9.55799e-005 to 9.55817e-005
Heightened Def Con from 9.56519e-005 to 9.56528e-005
Heightened Def Con from 9.95845e-005 to 9.95851e-005
Heightened Def Con from 0.000100729 to 0.000100731
Heightened Def Con from 0.000100803 to 0.000100804
Heightened Def Con from 0.000104638 to 0.000104638
Heightened Def Con from 0.000105638 to 0.00010564
Heightened Def Con from 0.000105714 to 0.000105715
Heightened Def Con from 0.000109647 to 0.000109648
Heightened Def Con from 0.000109719 to 0.00010972
Heightened Def Con from 0.000110648 to 0.00011065
Heightened Def Con from 0.000110722 to 0.000110723
Heightened Def Con from 0.000114629 to 0.00011463
Heightened Def Con from 0.000114703 to 0.000114703
Heightened Def Con from 0.000115663 to 0.000115665
Heightened Def Con from 0.000115737 to 0.000115738
Heightened Def Con from 0.000119657 to 0.000119658
Heightened Def Con from 0.000119729 to 0.00011973
Heightened Def Con from 0.00012063 to 0.000120632
Heightened Def Con from 0.000120704 to 0.000120705
Heightened Def Con from 0.000124643 to 0.000124644
Heightened Def Con from 0.000124716 to 0.000124717
Heightened Def Con from 0.000125646 to 0.000125648
Heightened Def Con from 0.000125722 to 0.000125722
Heightened Def Con from 0.000129653 to 0.000129654
Heightened Def Con from 0.000129725 to 0.000129726
Heightened Def Con from 0.000130634 to 0.000130636
Heightened Def Con from 0.000130708 to 0.000130709
Heightened Def Con from 0.000134655 to 0.000134656
Heightened Def Con from 0.000134727 to 0.000134728
Heightened Def Con from 0.000135708 to 0.000135709
Heightened Def Con from 0.00013965 to 0.00013965
Heightened Def Con from 0.000139722 to 0.000139723
Heightened Def Con from 0.000140635 to 0.000140637
Heightened Def Con from 0.000140712 to 0.000140712
Heightened Def Con from 0.000144657 to 0.000144658
Heightened Def Con from 0.000144729 to 0.000144739
Heightened Def Con from 0.000145628 to 0.00014563
Heightened Def Con from 0.000145703 to 0.000145704
Heightened Def Con from 0.00014966 to 0.000149661
Heightened Def Con from 0.000149732 to 0.000149733
Heightened Def Con from 0.000150629 to 0.000150631
Heightened Def Con from 0.000150701 to 0.000150702
Heightened Def Con from 0.000154662 to 0.000154662
Heightened Def Con from 0.000154731 to 0.000154731
Heightened Def Con from 0.000155626 to 0.000155628
Heightened Def Con from 0.000159659 to 0.000159659
Heightened Def Con from 0.000159733 to 0.000159734
Heightened Def Con from 0.000160623 to 0.000160625
Heightened Def Con from 0.000160698 to 0.000160699
Heightened Def Con from 0.000164663 to 0.000164663
Heightened Def Con from 0.000164735 to 0.000164736
Heightened Def Con from 0.000165624 to 0.000165626
Heightened Def Con from 0.000165696 to 0.000165697
Heightened Def Con from 0.000169662 to 0.000169663
Heightened Def Con from 0.000169734 to 0.000169735
Heightened Def Con from 0.000170623 to 0.000170625
Heightened Def Con from 0.000170698 to 0.000170699
Heightened Def Con from 0.000174663 to 0.000174664
Heightened Def Con from 0.000175696 to 0.000175697
Heightened Def Con from 0.000179662 to 0.000179662
Heightened Def Con from 0.000179734 to 0.000179735
Heightened Def Con from 0.000180622 to 0.000180624
Heightened Def Con from 0.000180697 to 0.000180698
Heightened Def Con from 0.000184667 to 0.000184667
Heightened Def Con from 0.000184738 to 0.000184739
Heightened Def Con from 0.000185619 to 0.000185621
Heightened Def Con from 0.000185693 to 0.000185694
Heightened Def Con from 0.000189664 to 0.000189665
Heightened Def Con from 0.000189736 to 0.000189737
Heightened Def Con from 0.000190619 to 0.000190621
Heightened Def Con from 0.000190696 to 0.000190697
Heightened Def Con from 0.000194661 to 0.000194661
Heightened Def Con from 0.000194733 to 0.000194733
Heightened Def Con from 0.000195625 to 0.000195626
Heightened Def Con from 0.000195699 to 0.0001957
Heightened Def Con from 0.000199671 to 0.000199671
Heightened Def Con from 0.00019974 to 0.000199741
Heightened Def Con from 0.000200614 to 0.000200616
Heightened Def Con from 0.000204667 to 0.000204667
Heightened Def Con from 0.000204739 to 0.000204739
Heightened Def Con from 0.00020562 to 0.000205622
Heightened Def Con from 0.000205694 to 0.000205695
Heightened Def Con from 0.000209664 to 0.000209665
Heightened Def Con from 0.000209736 to 0.000209737
Heightened Def Con from 0.00021062 to 0.000210622
Heightened Def Con from 0.000210695 to 0.000210695
Heightened Def Con from 0.000214672 to 0.000214672
Heightened Def Con from 0.000214743 to 0.000214744
Heightened Def Con from 0.00021561 to 0.000215612
Heightened Def Con from 0.000215686 to 0.000215687
Heightened Def Con from 0.000219659 to 0.00021966
Heightened Def Con from 0.000219731 to 0.000219732
Heightened Def Con from 0.000220629 to 0.000220631
Heightened Def Con from 0.000220701 to 0.000220702
Heightened Def Con from 0.000224671 to 0.000224671
Heightened Def Con from 0.000224743 to 0.000224744
Heightened Def Con from 0.000225684 to 0.000225685
Heightened Def Con from 0.000229666 to 0.000229666
Heightened Def Con from 0.000229737 to 0.000229738
Heightened Def Con from 0.000230621 to 0.000230623
Heightened Def Con from 0.000230696 to 0.000230697
Heightened Def Con from 0.000234668 to 0.000234669
Heightened Def Con from 0.000234739 to 0.00023474
Heightened Def Con from 0.000235616 to 0.000235618
Heightened Def Con from 0.000235691 to 0.000235692
Heightened Def Con from 0.000239669 to 0.000239669
Heightened Def Con from 0.00023974 to 0.000239741
Heightened Def Con from 0.000240691 to 0.000240692
Heightened Def Con from 0.000244667 to 0.000244667
Heightened Def Con from 0.000244738 to 0.000244739
Heightened Def Con from 0.00024562 to 0.000245622
Heightened Def Con from 0.000245692 to 0.000245693
Heightened Def Con from 0.00024967 to 0.00024967
Heightened Def Con from 0.000249741 to 0.000249742
Heightened Def Con from 0.000250615 to 0.000250617
Heightened Def Con from 0.000250689 to 0.00025069
Heightened Def Con from 0.000254667 to 0.000254667
Heightened Def Con from 0.000254738 to 0.000254739
Heightened Def Con from 0.000255617 to 0.000255619
Heightened Def Con from 0.000255692 to 0.000255693
Heightened Def Con from 0.000259669 to 0.00025967
Heightened Def Con from 0.000259741 to 0.000259742
Heightened Def Con from 0.000260613 to 0.000260615
Heightened Def Con from 0.000260689 to 0.000260695
Heightened Def Con from 0.000264665 to 0.000264666
Heightened Def Con from 0.000264737 to 0.000264747
Heightened Def Con from 0.000265619 to 0.00026562
Heightened Def Con from 0.000265693 to 0.000265694
Heightened Def Con from 0.000269671 to 0.000269671
Heightened Def Con from 0.000269743 to 0.000269743
Heightened Def Con from 0.000270613 to 0.000270615
Heightened Def Con from 0.000274668 to 0.000274669
Heightened Def Con from 0.00027474 to 0.000274741
Heightened Def Con from 0.000275616 to 0.000275618
Heightened Def Con from 0.000279669 to 0.000279669
Heightened Def Con from 0.000279741 to 0.000279742
Heightened Def Con from 0.000280615 to 0.000280616
Heightened Def Con from 0.000280691 to 0.000280691
Heightened Def Con from 0.000284664 to 0.000284665
Heightened Def Con from 0.000284736 to 0.000284737
Heightened Def Con from 0.000285622 to 0.000285624
Heightened Def Con from 0.00028967 to 0.000289671
Heightened Def Con from 0.000289742 to 0.000289743
Heightened Def Con from 0.000290613 to 0.000290615
Heightened Def Con from 0.000290688 to 0.000290689
Heightened Def Con from 0.000294667 to 0.000294668
Heightened Def Con from 0.000294739 to 0.00029474
Heightened Def Con from 0.000295615 to 0.000295616
Heightened Def Con from 0.000295691 to 0.000295692
Heightened Def Con from 0.000299665 to 0.000299665
Heightened Def Con from 0.000299736 to 0.000299737
Heightened Def Con from 0.00030062 to 0.000300622
Heightened Def Con from 0.00030467 to 0.000304671
Heightened Def Con from 0.000304742 to 0.000304743
Heightened Def Con from 0.000305615 to 0.000305617
Heightened Def Con from 0.000305687 to 0.000305688
Heightened Def Con from 0.000309667 to 0.000309667
Heightened Def Con from 0.000309739 to 0.00030974
Heightened Def Con from 0.000310691 to 0.000310692
Heightened Def Con from 0.00031467 to 0.000314671
Heightened Def Con from 0.000314742 to 0.000314743
Heightened Def Con from 0.000315613 to 0.000315615
Heightened Def Con from 0.000315687 to 0.000315688
Heightened Def Con from 0.000319669 to 0.000319669
Heightened Def Con from 0.000319738 to 0.000319739
Heightened Def Con from 0.000320618 to 0.00032062
Heightened Def Con from 0.000320692 to 0.000320693
Heightened Def Con from 0.000324669 to 0.00032467
Heightened Def Con from 0.000324741 to 0.000324742
Heightened Def Con from 0.000325612 to 0.000325614
Heightened Def Con from 0.000325689 to 0.00032569
Heightened Def Con from 0.000329663 to 0.000329664
Heightened Def Con from 0.000329736 to 0.000329736
Heightened Def Con from 0.000330697 to 0.000330698
Heightened Def Con from 0.000334671 to 0.000334671
Heightened Def Con from 0.000334742 to 0.000334743
Heightened Def Con from 0.000335613 to 0.000335615
Heightened Def Con from 0.000335687 to 0.000335688
Heightened Def Con from 0.000339666 to 0.000339666
Heightened Def Con from 0.00033974 to 0.000339741
Heightened Def Con from 0.000340618 to 0.00034062
Heightened Def Con from 0.000340692 to 0.000340693
Heightened Def Con from 0.000344668 to 0.000344668
Heightened Def Con from 0.000344741 to 0.000344742
Heightened Def Con from 0.000345618 to 0.00034562
Heightened Def Con from 0.000345689 to 0.000345695
Heightened Def Con from 0.000349669 to 0.00034967
Heightened Def Con from 0.00034974 to 0.000349741
Heightened Def Con from 0.000350615 to 0.000350617
Heightened Def Con from 0.00035069 to 0.000350691
Heightened Def Con from 0.000354667 to 0.000354667
Heightened Def Con from 0.000354739 to 0.00035474
Heightened Def Con from 0.000355618 to 0.00035562
Heightened Def Con from 0.00035569 to 0.000355691
Heightened Def Con from 0.00035967 to 0.000359671
Heightened Def Con from 0.000359741 to 0.000359742
Heightened Def Con from 0.000360615 to 0.000360617
Heightened Def Con from 0.000360687 to 0.000360688
Heightened Def Con from 0.000364667 to 0.000364668
Heightened Def Con from 0.00036474 to 0.00036474
Heightened Def Con from 0.000365617 to 0.000365619
Heightened Def Con from 0.000365692 to 0.000365692
Heightened Def Con from 0.000369668 to 0.000369669
Heightened Def Con from 0.000369741 to 0.000369742
Heightened Def Con from 0.000370617 to 0.000370618
Heightened Def Con from 0.000374672 to 0.000374672
Heightened Def Con from 0.000374743 to 0.000374744
Heightened Def Con from 0.000375613 to 0.000375615
Heightened Def Con from 0.000375689 to 0.000375689
Heightened Def Con from 0.000379666 to 0.000379667
Heightened Def Con from 0.000379738 to 0.000379739
Heightened Def Con from 0.000380617 to 0.000380619
Heightened Def Con from 0.000380693 to 0.000380693
Heightened Def Con from 0.000384667 to 0.000384668
Heightened Def Con from 0.000384739 to 0.00038474
Heightened Def Con from 0.000385616 to 0.000385618
Heightened Def Con from 0.000385688 to 0.000385689
Heightened Def Con from 0.000389671 to 0.000389672
Heightened Def Con from 0.000389743 to 0.000389744
Heightened Def Con from 0.000390615 to 0.000390617
Heightened Def Con from 0.000394667 to 0.000394668
Heightened Def Con from 0.000395618 to 0.00039562
Heightened Def Con from 0.000395693 to 0.000395694
Heightened Def Con from 0.00039967 to 0.00039967
Heightened Def Con from 0.000399741 to 0.000399742
Heightened Def Con from 0.000400689 to 0.00040069
Heightened Def Con from 0.000404667 to 0.000404668
Heightened Def Con from 0.000404739 to 0.000404739
Heightened Def Con from 0.000405619 to 0.000405621
Heightened Def Con from 0.000405691 to 0.000405692
Heightened Def Con from 0.000409672 to 0.000409672
Heightened Def Con from 0.000409741 to 0.000409741
Heightened Def Con from 0.000410615 to 0.000410617
Heightened Def Con from 0.000410686 to 0.000410687
Heightened Def Con from 0.000414669 to 0.00041467
Heightened Def Con from 0.000414741 to 0.000414742
Heightened Def Con from 0.000415615 to 0.000415617
Heightened Def Con from 0.00041569 to 0.00041569
Heightened Def Con from 0.000419666 to 0.000419666
Heightened Def Con from 0.000419737 to 0.000419738
Heightened Def Con from 0.000420614 to 0.000420616
Heightened Def Con from 0.00042069 to 0.000420691
Heightened Def Con from 0.000424665 to 0.000424666
Heightened Def Con from 0.000425619 to 0.000425621
Heightened Def Con from 0.000425694 to 0.000425694
Heightened Def Con from 0.000429675 to 0.000429676
Heightened Def Con from 0.000429744 to 0.000429745
Heightened Def Con from 0.00043061 to 0.000430611
Heightened Def Con from 0.000430684 to 0.000430685
Heightened Def Con from 0.000434665 to 0.000434666
Heightened Def Con from 0.000434739 to 0.000434739
Heightened Def Con from 0.000435619 to 0.00043562
Heightened Def Con from 0.000435693 to 0.000435693
Heightened Def Con from 0.00043967 to 0.000439671
Heightened Def Con from 0.000439739 to 0.00043974
Heightened Def Con from 0.000440611 to 0.000440613
Heightened Def Con from 0.000440688 to 0.000440694
Heightened Def Con from 0.000444665 to 0.000444666
Heightened Def Con from 0.000444738 to 0.000444739
Heightened Def Con from 0.00044562 to 0.000445622
Heightened Def Con from 0.000445692 to 0.000445693
Heightened Def Con from 0.00044967 to 0.000449671
Heightened Def Con from 0.000449741 to 0.000449742
Heightened Def Con from 0.000450615 to 0.000450617
Heightened Def Con from 0.000454669 to 0.00045467
Heightened Def Con from 0.000454741 to 0.000454742
Heightened Def Con from 0.000455617 to 0.000455619
Heightened Def Con from 0.000455688 to 0.000455689
Heightened Def Con from 0.000459668 to 0.000459668
Heightened Def Con from 0.000459739 to 0.00045974
Heightened Def Con from 0.000460616 to 0.000460618
Heightened Def Con from 0.000460692 to 0.000460693
Heightened Def Con from 0.000464669 to 0.00046467
Heightened Def Con from 0.000464741 to 0.000464742
Heightened Def Con from 0.000465616 to 0.000465618
Heightened Def Con from 0.000465688 to 0.000465689
Heightened Def Con from 0.000469668 to 0.000469669
Heightened Def Con from 0.00046974 to 0.000469741
Heightened Def Con from 0.000470617 to 0.000470619
Heightened Def Con from 0.000470691 to 0.000470692
Heightened Def Con from 0.000474668 to 0.000474669
Heightened Def Con from 0.000474737 to 0.000474738
Heightened Def Con from 0.000475615 to 0.000475617
Heightened Def Con from 0.000475689 to 0.00047569
Heightened Def Con from 0.000479671 to 0.000479671
Heightened Def Con from 0.000479742 to 0.000479743
Heightened Def Con from 0.000480613 to 0.000480615
Heightened Def Con from 0.000480688 to 0.000480689
Heightened Def Con from 0.000484666 to 0.000484667
Heightened Def Con from 0.000484738 to 0.000484739
Heightened Def Con from 0.00048562 to 0.000485622
Heightened Def Con from 0.000485692 to 0.000485692
Heightened Def Con from 0.000489671 to 0.000489671
Heightened Def Con from 0.000489743 to 0.000489743
Heightened Def Con from 0.000490614 to 0.000490615
Heightened Def Con from 0.000490688 to 0.000490689
Heightened Def Con from 0.00049467 to 0.000494671
Heightened Def Con from 0.000494741 to 0.000494742
Heightened Def Con from 0.000495615 to 0.000495617
Heightened Def Con from 0.000495689 to 0.00049569
Heightened Def Con from 0.000499667 to 0.000499668
Heightened Def Con from 0.000499739 to 0.00049974
Heightened Def Con from 0.000500616 to 0.000500618
Heightened Def Con from 0.000500691 to 0.000500692
Heightened Def Con from 0.000504667 to 0.000504668
Heightened Def Con from 0.00050474 to 0.000504741
Heightened Def Con from 0.000505618 to 0.00050562
Heightened Def Con from 0.00050967 to 0.000509671
Heightened Def Con from 0.000509739 to 0.00050974
Heightened Def Con from 0.000510615 to 0.000510617
Heightened Def Con from 0.000510687 to 0.000510688
Heightened Def Con from 0.000514669 to 0.00051467
Heightened Def Con from 0.000514742 to 0.000514743
Heightened Def Con from 0.000515612 to 0.00051562
Heightened Def Con from 0.000515688 to 0.000515689
Heightened Def Con from 0.000519666 to 0.000519667
Heightened Def Con from 0.000519738 to 0.000519739
Heightened Def Con from 0.000520694 to 0.000520694
Heightened Def Con from 0.000524667 to 0.000524668
Heightened Def Con from 0.000524739 to 0.00052474
Heightened Def Con from 0.000525612 to 0.000525614
Heightened Def Con from 0.000525689 to 0.00052569
Heightened Def Con from 0.000529664 to 0.000529665
Heightened Def Con from 0.000529736 to 0.000529737
Heightened Def Con from 0.000530696 to 0.000530696
Heightened Def Con from 0.000534585 to 0.000534586
Heightened Def Con from 0.000534672 to 0.000534672
Heightened Def Con from 0.000534744 to 0.000534744
Heightened Def Con from 0.000535613 to 0.000535615
Heightened Def Con from 0.000539668 to 0.000539668
Heightened Def Con from 0.000539741 to 0.000539742
Heightened Def Con from 0.000540619 to 0.000540621
Heightened Def Con from 0.000540691 to 0.000540692
Heightened Def Con from 0.000544667 to 0.000544667
Heightened Def Con from 0.00054474 to 0.000544741
Heightened Def Con from 0.000545616 to 0.000545618
Heightened Def Con from 0.000545691 to 0.000545692
Heightened Def Con from 0.000549668 to 0.000549669
Heightened Def Con from 0.00054974 to 0.000549741
Heightened Def Con from 0.000550691 to 0.000550692
Heightened Def Con from 0.00055467 to 0.00055467
Heightened Def Con from 0.000554741 to 0.000554742
Heightened Def Con from 0.000555616 to 0.000555618
Heightened Def Con from 0.000559669 to 0.00055967
Heightened Def Con from 0.000559741 to 0.000559742
Heightened Def Con from 0.000560617 to 0.000560618
Heightened Def Con from 0.000560691 to 0.000560697
Heightened Def Con from 0.000564669 to 0.00056467
Heightened Def Con from 0.000564741 to 0.000564742
Heightened Def Con from 0.000565616 to 0.000565618
Heightened Def Con from 0.000569666 to 0.000569667
Heightened Def Con from 0.00056974 to 0.00056974
Heightened Def Con from 0.000570615 to 0.000570617
Heightened Def Con from 0.000570691 to 0.000570691
Heightened Def Con from 0.000574668 to 0.000574669
Heightened Def Con from 0.00057474 to 0.000574741
Heightened Def Con from 0.000575617 to 0.000575618
Heightened Def Con from 0.000575691 to 0.000575692
Heightened Def Con from 0.000579668 to 0.000579668
Heightened Def Con from 0.00057974 to 0.000579741
Heightened Def Con from 0.000580615 to 0.000580617
Heightened Def Con from 0.00058069 to 0.000580691
Heightened Def Con from 0.000584666 to 0.000584667
Heightened Def Con from 0.00058474 to 0.000584741
Heightened Def Con from 0.000585615 to 0.000585617
Heightened Def Con from 0.00058569 to 0.000585691
Heightened Def Con from 0.000589669 to 0.000589669
Heightened Def Con from 0.000589741 to 0.000589742
Heightened Def Con from 0.000590616 to 0.000590618
Heightened Def Con from 0.000594667 to 0.000594668
Heightened Def Con from 0.000594739 to 0.00059474
Heightened Def Con from 0.000595615 to 0.000595617
Heightened Def Con from 0.00059569 to 0.000595691
Heightened Def Con from 0.00059967 to 0.00059967
Heightened Def Con from 0.000599739 to 0.00059974
Heightened Def Con from 0.00060069 to 0.00060069
Heightened Def Con from 0.000604669 to 0.00060467
Heightened Def Con from 0.000604741 to 0.000604742
Heightened Def Con from 0.000605615 to 0.000605617
Heightened Def Con from 0.00060569 to 0.000605691
Heightened Def Con from 0.000609668 to 0.000609668
Heightened Def Con from 0.00060974 to 0.000609741
Heightened Def Con from 0.000610616 to 0.000610618
Heightened Def Con from 0.000610691 to 0.000610692
Heightened Def Con from 0.00061467 to 0.000614671
Heightened Def Con from 0.000614744 to 0.000614744
Heightened Def Con from 0.000615615 to 0.000615617
Heightened Def Con from 0.000615687 to 0.000615688
Heightened Def Con from 0.000619665 to 0.000619666
Heightened Def Con from 0.000619738 to 0.000619739
Heightened Def Con from 0.000620618 to 0.00062062
Heightened Def Con from 0.000620693 to 0.000620699
Heightened Def Con from 0.000624743 to 0.000624744
Heightened Def Con from 0.000625613 to 0.000625614
Heightened Def Con from 0.000625687 to 0.000625688
Heightened Def Con from 0.000629666 to 0.000629667
Heightened Def Con from 0.00062974 to 0.000629741
Heightened Def Con from 0.000630617 to 0.000630619
Heightened Def Con from 0.000630693 to 0.000630694
Heightened Def Con from 0.000634666 to 0.000634666
Heightened Def Con from 0.000634738 to 0.000634739
Heightened Def Con from 0.000635692 to 0.000635693
Heightened Def Con from 0.000639667 to 0.000639668
Heightened Def Con from 0.000639736 to 0.000639737
Heightened Def Con from 0.000640616 to 0.000640618
Heightened Def Con from 0.000640691 to 0.000640692
Heightened Def Con from 0.000644673 to 0.000644673
Heightened Def Con from 0.000644745 to 0.000644746
Heightened Def Con from 0.00064561 to 0.000645612
Heightened Def Con from 0.000645686 to 0.000645687
Heightened Def Con from 0.000649661 to 0.000649662
Heightened Def Con from 0.000649733 to 0.000649734
Heightened Def Con from 0.000650625 to 0.000650627
Heightened Def Con from 0.0006507 to 0.000650701
Heightened Def Con from 0.000654673 to 0.000654673
Heightened Def Con from 0.000654745 to 0.000654746
Heightened Def Con from 0.000655606 to 0.000655608
Heightened Def Con from 0.000655681 to 0.000655682
Heightened Def Con from 0.000659667 to 0.000659667
Heightened Def Con from 0.00065974 to 0.000659741
Heightened Def Con from 0.000660617 to 0.000660619
Heightened Def Con from 0.000660693 to 0.000660694
Heightened Def Con from 0.000664663 to 0.000664663
Heightened Def Con from 0.000664734 to 0.000664735
Heightened Def Con from 0.000665623 to 0.000665625
Heightened Def Con from 0.000665697 to 0.000665698
Heightened Def Con from 0.000669675 to 0.000669676
Heightened Def Con from 0.000669747 to 0.000669748
Heightened Def Con from 0.000670606 to 0.000670608
Heightened Def Con from 0.000670681 to 0.000670681
Heightened Def Con from 0.000674666 to 0.000674667
Heightened Def Con from 0.000674735 to 0.000674736
Heightened Def Con from 0.000675622 to 0.000675623
Heightened Def Con from 0.000679669 to 0.00067967
Heightened Def Con from 0.000679742 to 0.000679742
Heightened Def Con from 0.000680613 to 0.000680615
Heightened Def Con from 0.000680688 to 0.000680689
Heightened Def Con from 0.000684669 to 0.00068467
Heightened Def Con from 0.00068474 to 0.000684741
Heightened Def Con from 0.000685616 to 0.000685618
Heightened Def Con from 0.000685692 to 0.000685693
Heightened Def Con from 0.000689668 to 0.000689669
Heightened Def Con from 0.000689739 to 0.00068974
Heightened Def Con from 0.000690617 to 0.000690618
Heightened Def Con from 0.000690691 to 0.000690692
Heightened Def Con from 0.00069467 to 0.00069467
Heightened Def Con from 0.000695615 to 0.000695617
Heightened Def Con from 0.00069569 to 0.00069569
Heightened Def Con from 0.000699667 to 0.000699668
Heightened Def Con from 0.000699739 to 0.00069974
Heightened Def Con from 0.000700618 to 0.00070062
Heightened Def Con from 0.000700692 to 0.000700693
Heightened Def Con from 0.000704669 to 0.00070467
Heightened Def Con from 0.000704743 to 0.000704743
Heightened Def Con from 0.000705613 to 0.000705615
Heightened Def Con from 0.00070569 to 0.000705691
Heightened Def Con from 0.000709662 to 0.000709663
Heightened Def Con from 0.000709734 to 0.000709735
Heightened Def Con from 0.000710621 to 0.000710623
Heightened Def Con from 0.000710696 to 0.000710697
Heightened Def Con from 0.000714671 to 0.000714672
Heightened Def Con from 0.000714743 to 0.000714744
Heightened Def Con from 0.000715613 to 0.000715615
Heightened Def Con from 0.000715687 to 0.000715688
Heightened Def Con from 0.000719667 to 0.000719668
Heightened Def Con from 0.000719739 to 0.00071974
Heightened Def Con from 0.000720618 to 0.00072062
Heightened Def Con from 0.000724668 to 0.000724668
Heightened Def Con from 0.000724741 to 0.000724742
Heightened Def Con from 0.000725612 to 0.000725614
Heightened Def Con from 0.000725689 to 0.00072569
Heightened Def Con from 0.000729661 to 0.000729662
Heightened Def Con from 0.000729733 to 0.000729734
Heightened Def Con from 0.000730622 to 0.000730624
Heightened Def Con from 0.000730697 to 0.000730697
Heightened Def Con from 0.000734671 to 0.000734672
Heightened Def Con from 0.000734743 to 0.000734744
Heightened Def Con from 0.00073561 to 0.000735612
Heightened Def Con from 0.000735685 to 0.000735686
Heightened Def Con from 0.000739668 to 0.000739669
Heightened Def Con from 0.00073974 to 0.000739741
Heightened Def Con from 0.000740617 to 0.000740619
Heightened Def Con from 0.000740693 to 0.000740694
Heightened Def Con from 0.000744664 to 0.000744665
Heightened Def Con from 0.000744736 to 0.000744737
Heightened Def Con from 0.000745622 to 0.000745624
Heightened Def Con from 0.000745694 to 0.000745695
Heightened Def Con from 0.000749672 to 0.000749673
Heightened Def Con from 0.000749744 to 0.000749745
Heightened Def Con from 0.000750611 to 0.000750613
Heightened Def Con from 0.000750686 to 0.000750687
Heightened Def Con from 0.000754666 to 0.000754667
Heightened Def Con from 0.000754738 to 0.000754739
Heightened Def Con from 0.00075562 to 0.000755622
Heightened Def Con from 0.000755695 to 0.000755696
Heightened Def Con from 0.000759668 to 0.000759668
Heightened Def Con from 0.00075974 to 0.000759741
Heightened Def Con from 0.000760613 to 0.000760615
Heightened Def Con from 0.000764668 to 0.000764668
Heightened Def Con from 0.000764741 to 0.000764742
Heightened Def Con from 0.000765618 to 0.00076562
Heightened Def Con from 0.000769667 to 0.000769668
Heightened Def Con from 0.000769738 to 0.000769739
Heightened Def Con from 0.000770616 to 0.000770618
Heightened Def Con from 0.000770692 to 0.000770693
Heightened Def Con from 0.000774666 to 0.000774667
Heightened Def Con from 0.000775616 to 0.000775618
Heightened Def Con from 0.000775691 to 0.000775692
Heightened Def Con from 0.000779669 to 0.00077967
Heightened Def Con from 0.00077974 to 0.000779741
Heightened Def Con from 0.000780616 to 0.000780618
Heightened Def Con from 0.000780688 to 0.000780688
Heightened Def Con from 0.000784667 to 0.000784667
Heightened Def Con from 0.00078474 to 0.000784741
Heightened Def Con from 0.000785616 to 0.000785618
Heightened Def Con from 0.00078569 to 0.000785691
Heightened Def Con from 0.000789668 to 0.000789669
Heightened Def Con from 0.000789741 to 0.000789742
Heightened Def Con from 0.000790616 to 0.000790618
Heightened Def Con from 0.00079069 to 0.000790691
Heightened Def Con from 0.000794668 to 0.000794669
Heightened Def Con from 0.000794742 to 0.000794743
Heightened Def Con from 0.000795613 to 0.000795615
Heightened Def Con from 0.000795689 to 0.000795689
Heightened Def Con from 0.000799664 to 0.000799665
Heightened Def Con from 0.000799737 to 0.000799738
Heightened Def Con from 0.000800618 to 0.00080062
Heightened Def Con from 0.000800693 to 0.000800694
Heightened Def Con from 0.00080467 to 0.000804671
Heightened Def Con from 0.000804742 to 0.000804743
Heightened Def Con from 0.000805614 to 0.000805622
Heightened Def Con from 0.000805688 to 0.000805689
Heightened Def Con from 0.000809667 to 0.000809668
Heightened Def Con from 0.000809739 to 0.00080974
Heightened Def Con from 0.000810617 to 0.000810619
Heightened Def Con from 0.000810692 to 0.000810692
Heightened Def Con from 0.000814668 to 0.000814669
Heightened Def Con from 0.00081474 to 0.000814741
Heightened Def Con from 0.000815615 to 0.000815617
Heightened Def Con from 0.00081569 to 0.000815691
Heightened Def Con from 0.000819669 to 0.00081967
Heightened Def Con from 0.000819741 to 0.000819742
Heightened Def Con from 0.000820616 to 0.000820618
Heightened Def Con from 0.000820688 to 0.000820689
Heightened Def Con from 0.000824668 to 0.000824668
Heightened Def Con from 0.00082474 to 0.000824741
Heightened Def Con from 0.000825617 to 0.000825619
Heightened Def Con from 0.000825689 to 0.00082569
Heightened Def Con from 0.000829669 to 0.00082967
Heightened Def Con from 0.000829741 to 0.000829742
Heightened Def Con from 0.000830615 to 0.000830617
Heightened Def Con from 0.000830687 to 0.000830687
Heightened Def Con from 0.000834666 to 0.000834667
Heightened Def Con from 0.000834739 to 0.000834739
Heightened Def Con from 0.000835617 to 0.000835619
Heightened Def Con from 0.000835692 to 0.000835693
Heightened Def Con from 0.000839669 to 0.00083967
Heightened Def Con from 0.000839741 to 0.000839742
Heightened Def Con from 0.000840616 to 0.000840618
Heightened Def Con from 0.000840691 to 0.000840692
Heightened Def Con from 0.000844669 to 0.000844669
Heightened Def Con from 0.00084474 to 0.000844741
Heightened Def Con from 0.000845614 to 0.000845616
Heightened Def Con from 0.000845689 to 0.00084569
Heightened Def Con from 0.000849667 to 0.000849668
Heightened Def Con from 0.000849739 to 0.00084974
Heightened Def Con from 0.000850619 to 0.000850621
Heightened Def Con from 0.000850691 to 0.000850697
Heightened Def Con from 0.00085467 to 0.00085467
Heightened Def Con from 0.000854741 to 0.000854742
Heightened Def Con from 0.000855615 to 0.000855617
Heightened Def Con from 0.000855687 to 0.000855688
Heightened Def Con from 0.000859667 to 0.000859667
Heightened Def Con from 0.000859739 to 0.00085974
Heightened Def Con from 0.000860616 to 0.000860618
Heightened Def Con from 0.000860691 to 0.000860692
Heightened Def Con from 0.000864671 to 0.000864671
Heightened Def Con from 0.000864741 to 0.000864742
Heightened Def Con from 0.000865614 to 0.000865616
Heightened Def Con from 0.000869667 to 0.000869668
Heightened Def Con from 0.000869739 to 0.00086974
Heightened Def Con from 0.000870615 to 0.000870617
Heightened Def Con from 0.000870691 to 0.000870697
Heightened Def Con from 0.000874663 to 0.000874664
Heightened Def Con from 0.000874735 to 0.000874736
Heightened Def Con from 0.000875621 to 0.000875623
Heightened Def Con from 0.000875696 to 0.000875697
Heightened Def Con from 0.000879674 to 0.000879674
Heightened Def Con from 0.000879743 to 0.000879743
Heightened Def Con from 0.000880612 to 0.000880614
Heightened Def Con from 0.000880684 to 0.000880685
Heightened Def Con from 0.000884669 to 0.000884669
Heightened Def Con from 0.000884741 to 0.000884742
Heightened Def Con from 0.000885615 to 0.000885617
Heightened Def Con from 0.000889665 to 0.000889666
Heightened Def Con from 0.000889737 to 0.000889738
Heightened Def Con from 0.000890621 to 0.000890623
Heightened Def Con from 0.000890693 to 0.000890694
Heightened Def Con from 0.000894672 to 0.000894673
Heightened Def Con from 0.000894746 to 0.000894747
Heightened Def Con from 0.000895613 to 0.000895615
Heightened Def Con from 0.000895685 to 0.000895686
Heightened Def Con from 0.000899666 to 0.000899667
Heightened Def Con from 0.000899737 to 0.000899738
Heightened Def Con from 0.00090062 to 0.000900622
Heightened Def Con from 0.000900695 to 0.000900695
Heightened Def Con from 0.00090467 to 0.00090467
Heightened Def Con from 0.000904741 to 0.000904742
Heightened Def Con from 0.000905615 to 0.000905617
Heightened Def Con from 0.00090569 to 0.000905691
Heightened Def Con from 0.000909669 to 0.000909669
Heightened Def Con from 0.000909741 to 0.000909742
Heightened Def Con from 0.000910615 to 0.000910617
Heightened Def Con from 0.00091069 to 0.000910691
Heightened Def Con from 0.000914666 to 0.000914667
Heightened Def Con from 0.000914738 to 0.000914739
Heightened Def Con from 0.000915616 to 0.000915617
Heightened Def Con from 0.000919668 to 0.000919669
Heightened Def Con from 0.000919741 to 0.000919742
Heightened Def Con from 0.000920614 to 0.000920616
Heightened Def Con from 0.000920689 to 0.00092069
Heightened Def Con from 0.000924668 to 0.000924668
Heightened Def Con from 0.000924739 to 0.00092474
Heightened Def Con from 0.000925618 to 0.000925619
Heightened Def Con from 0.000925692 to 0.000925693
Heightened Def Con from 0.000929668 to 0.000929668
Heightened Def Con from 0.00092974 to 0.000929741
Heightened Def Con from 0.000930616 to 0.000930618
Heightened Def Con from 0.000930688 to 0.000930689
Heightened Def Con from 0.00093467 to 0.00093467
Heightened Def Con from 0.000934741 to 0.000934742
Heightened Def Con from 0.000935615 to 0.000935616
Heightened Def Con from 0.000935689 to 0.00093569
Heightened Def Con from 0.000939665 to 0.000939665
Heightened Def Con from 0.000939739 to 0.00093974
Heightened Def Con from 0.000940617 to 0.000940619
Heightened Def Con from 0.000944669 to 0.00094467
Heightened Def Con from 0.00094474 to 0.000944741
Heightened Def Con from 0.000945616 to 0.000945618
Heightened Def Con from 0.000945691 to 0.000945697
Heightened Def Con from 0.000949668 to 0.000949668
Heightened Def Con from 0.00094974 to 0.000949741
Heightened Def Con from 0.000950616 to 0.000950617
Heightened Def Con from 0.000954666 to 0.000954667
Heightened Def Con from 0.000954738 to 0.000954739
Heightened Def Con from 0.000955616 to 0.000955618
Heightened Def Con from 0.000955688 to 0.000955689
Heightened Def Con from 0.000959671 to 0.000959671
Heightened Def Con from 0.000959742 to 0.000959743
Heightened Def Con from 0.000960613 to 0.000960615
Heightened Def Con from 0.000960687 to 0.000960688
Heightened Def Con from 0.000964667 to 0.000964668
Heightened Def Con from 0.000964739 to 0.00096474
Heightened Def Con from 0.000965692 to 0.000965692
Heightened Def Con from 0.000969669 to 0.00096967
Heightened Def Con from 0.00096974 to 0.000969741
Heightened Def Con from 0.000970617 to 0.000970619
Heightened Def Con from 0.000970689 to 0.00097069
Heightened Def Con from 0.00097467 to 0.00097467
Heightened Def Con from 0.000974743 to 0.000974744
Heightened Def Con from 0.000975615 to 0.000975617
Heightened Def Con from 0.00097569 to 0.000975691
Heightened Def Con from 0.000979665 to 0.000979665
Heightened Def Con from 0.000979738 to 0.000979739
Heightened Def Con from 0.000980619 to 0.000980621
Heightened Def Con from 0.000980694 to 0.000980695
Heightened Def Con from 0.000984669 to 0.00098467
Heightened Def Con from 0.000984741 to 0.000984742
Heightened Def Con from 0.000985613 to 0.000985615
Heightened Def Con from 0.000989668 to 0.000989669
Heightened Def Con from 0.000989741 to 0.000989751
Heightened Def Con from 0.000990614 to 0.000990616
Heightened Def Con from 0.000990691 to 0.000990692
Heightened Def Con from 0.000994661 to 0.000994662
Heightened Def Con from 0.000994733 to 0.000994734
Heightened Def Con from 0.000995622 to 0.000995624
Heightened Def Con from 0.000995696 to 0.000995697
Heightened Def Con from 0.000999676 to 0.000999676

Date: Fri Jun 02 19:55:24 2023
Total elapsed time: 52.783 seconds.

tnom = 27
temp = 27
method = modified trap
totiter = 1438097
traniter = 1437546
tranpoints = 398059
accept = 281372
rejected = 117404
matrix size = 305
fillins = 171
solver = Normal
Thread vector: 41.4/21.2[8] 8.5/5.3[8] 20.3/9.4[8] 0.6/2.8[1]  2592/500
Matrix Compiler1: 17.52 KB object code size  11.4/5.4/[1.6]
Matrix Compiler2: 23.59 KB object code size  5.0/6.4/[2.2]

