Circuit: * C:\Users\joaqu\Desktop\Circuit-Design\BUCK\BUCK_v1.asc

WARNING: Node NC_02 is floating.
WARNING: Node N001 is floating.

WARNING: Less than two connections to node NC_01.  This node is used by D1.
WARNING: Less than two connections to node NC_02.  This node is used by D1.
WARNING: Less than two connections to node N002.  This node is used by D2.
WARNING: Less than two connections to node N001.  This node is used by D2.
Direct Newton iteration for .op point succeeded.
Heightened Def Con from 0.00215501 to 0.00215501

Date: Wed May 17 21:48:35 2023
Total elapsed time: 12.502 seconds.

tnom = 27
temp = 27
method = modified trap
totiter = 458570
traniter = 458538
tranpoints = 140173
accept = 109670
rejected = 30504
matrix size = 21
fillins = 0
solver = Normal
Matrix Compiler1: 948 bytes object code size  0.4/0.2/[0.2]
Matrix Compiler2: 1.46 KB object code size  0.3/0.5/[0.3]

