Circuit: * C:\Users\joaqu\Desktop\Circuit-Design\BUCK\BUCK_v4_average.asc

WARNING: Less than two connections to node D.  This node is used by VDUTY1.
Direct Newton iteration for .op point succeeded.
Ignoring empty pin current: Ix(u2:5)
Ignoring empty pin current: Ix(u2:5)
.step rl1=3.29
.step rl1=64.5

Date: Fri Jun 02 19:36:49 2023
Total elapsed time: 0.151 seconds.

tnom = 27
temp = 27
method = modified trap
totiter = 2411
traniter = 2394
tranpoints = 1096
accept = 1074
rejected = 22
matrix size = 53
fillins = 37
solver = Normal
Matrix Compiler1: 3.97 KB object code size  1.6/1.0/[0.5]
Matrix Compiler2: 4.53 KB object code size  0.8/1.3/[0.5]

