Circuit: * D:\Uli\FIUBA\Materias\Diseño de Circuitos\TP\Circuit-Design\BUCK\BUCK_v4_average.asc

WARNING: Less than two connections to node D.  This node is used by VDUTY1.
Direct Newton iteration failed to find .op point.  (Use ".option noopiter" to skip.)
Starting Gmin stepping
Gmin = 10
Gmin = 1.07374
Gmin = 0.115292
Gmin = 0.0123794
Gmin = 0.00132923
Gmin = 0.000142725
Gmin = 1.5325e-005
Gmin = 1.6455e-006
Gmin = 1.76685e-007
Gmin = 1.89714e-008
Gmin = 2.03704e-009
Gmin = 2.18725e-010
Gmin = 2.34854e-011
Gmin = 2.52173e-012
Gmin = 2.70769e-013
Gmin = 0
Gmin stepping succeeded in finding the operating point.

Ignoring empty pin current: Ix(u1:1)
Ignoring empty pin current: Ix(u1:2)
Ignoring empty pin current: Ix(u1:3)
Ignoring empty pin current: Ix(u1:5)
Ignoring empty pin current: Ix(u1:1)
Ignoring empty pin current: Ix(u1:2)
Ignoring empty pin current: Ix(u1:3)
Ignoring empty pin current: Ix(u1:5)
.step rl1=3.29
.step rl1=64.5

Date: Wed Jul 19 20:24:06 2023
Total elapsed time: 0.503 seconds.

tnom = 27
temp = 27
method = modified trap
totiter = 25644
traniter = 24094
tranpoints = 12048
accept = 12043
rejected = 5
matrix size = 54
fillins = 52
solver = Normal
Matrix Compiler1: 4.68 KB object code size  0.8/0.3/[0.2]
Matrix Compiler2: 4.86 KB object code size  0.3/0.4/[0.3]

