Circuit: * D:\Uli\FIUBA\Materias\Diseño de Circuitos\TP\Circuit-Design\BUCK\BUCK_v4_average.asc

WARNING: Less than two connections to node D.  This node is used by VDUTY1.
Direct Newton iteration failed to find .op point.  (Use ".option noopiter" to skip.)
Starting Gmin stepping
Gmin = 10
Gmin = 1.07374
Gmin = 0.115292
Gmin = 0.0123794
Gmin = 0.00132923
Gmin = 0.000142725
Gmin = 1.5325e-005
Gmin = 1.6455e-006
Gmin = 1.76685e-007
Gmin = 1.89714e-008
Gmin = 2.03704e-009
Gmin = 2.18725e-010
Gmin = 2.34854e-011
Gmin = 2.52173e-012
Gmin = 2.70769e-013
Gmin = 0
Gmin stepping succeeded in finding the operating point.

Ignoring empty pin current: Ix(u1:1)
Ignoring empty pin current: Ix(u1:2)
Ignoring empty pin current: Ix(u1:3)
Ignoring empty pin current: Ix(u1:5)
Ignoring empty pin current: Ix(u1:1)
Ignoring empty pin current: Ix(u1:2)
Ignoring empty pin current: Ix(u1:3)
Ignoring empty pin current: Ix(u1:5)

Date: Mon May 29 17:29:58 2023
Total elapsed time: 0.252 seconds.

tnom = 27
temp = 27
method = modified trap
totiter = 24673
traniter = 24164
tranpoints = 12083
accept = 12059
rejected = 24
matrix size = 54
fillins = 48
solver = Normal
Matrix Compiler1: 4.33 KB object code size  0.8/0.3/[0.3]
Matrix Compiler2: 4.75 KB object code size  0.3/0.4/[0.3]

