Circuit: * C:\Users\joaqu\Desktop\Circuit-Design\BUCK\BUCK_v4_average.asc

WARNING: Less than two connections to node D.  This node is used by VDUTY1.
Direct Newton iteration for .op point succeeded.
Ignoring empty pin current: Ix(u1:1)
Ignoring empty pin current: Ix(u1:2)
Ignoring empty pin current: Ix(u1:3)
Ignoring empty pin current: Ix(u1:5)
Ignoring empty pin current: Ix(u1:1)
Ignoring empty pin current: Ix(u1:2)
Ignoring empty pin current: Ix(u1:3)
Ignoring empty pin current: Ix(u1:5)
Changing Tseed to 2e-013
Heightened Def Con from 2.00061e-013 to 7.39982e-012
Heightened Def Con from 5e-006 to 5.00813e-006
Heightened Def Con from 3.591e-005 to 3.592e-005
Heightened Def Con from 4e-005 to 4.0004e-005

Date: Fri May 26 20:06:37 2023
Total elapsed time: 2.427 seconds.

tnom = 27
temp = 27
method = modified trap
totiter = 163075
traniter = 163031
tranpoints = 44519
accept = 32478
rejected = 12044
matrix size = 58
fillins = 34
solver = Normal
Matrix Compiler1: 3.46 KB object code size  0.8/0.4/[0.2]
Matrix Compiler2: off  [0.4]/1.1/0.5

