Circuit: * D:\Uli\FIUBA\Materias\Diseño de Circuitos\TP\Circuit-Design\BUCK\BUCK_v7.asc

WARNING: Less than two connections to node NC_01.  This node is used by V4.
WARNING: Less than two connections to node NC_02.  This node is used by V5.
Instance "m:u8:_gd_template:_lo_stage:_lo_nmos": Length shorter than recommended for a level 1 MOSFET.
Instance "m:u8:_gd_template:_lo_stage:_lo_pmos": Length shorter than recommended for a level 1 MOSFET.
Instance "m:u8:_gd_template:_ho_stage:_ho_nmos": Length shorter than recommended for a level 1 MOSFET.
Instance "m:u8:_gd_template:_ho_stage:_ho_pmos": Length shorter than recommended for a level 1 MOSFET.
Direct Newton iteration failed to find .op point.  (Use ".option noopiter" to skip.)
Starting Gmin stepping
Gmin = 10
Gmin = 1.07374
Gmin = 0.115292
Gmin = 0.0123794
Gmin = 0.00132923
vernier = 0.5
vernier = 0.25
vernier = 0.125
vernier = 0.0625
Gmin = 0.00100083
vernier = 0.03125
vernier = 0.015625
vernier = 0.0078125
vernier = 0.00390625
vernier = 0.00195313
Gmin = 0.00100083
vernier = 0.000976563
vernier = 0.000488281
Gmin = 0
Gmin stepping failed

Starting source stepping with srcstepmethod=0
Source Step = 3.0303%
Source Step = 33.3333%
Source Step = 50.1894%
vernier = 0.015625
Source Step = 50.0237%
Source Step = 50.0533%
Source Step = 50.0829%
Source Step = 50.1125%
Source Step = 50.142%
vernier = 0.00146484
Source Step = 50.1746%
Source Step = 50.219%
Source Step = 50.2634%
Source Step = 50.3078%
Source Step = 50.3522%
vernier = 0.00219727
Source Step = 50.3988%
Source Step = 50.4653%
Source Step = 50.5319%
Source Step = 50.5985%
Source Step = 50.6651%
Source Step = 50.7317%
vernier = 0.0032959
Source Step = 50.8316%
Source Step = 50.9314%
Source Step = 51.0313%
Source Step = 51.1312%
Source Step = 51.2311%
vernier = 0.00494385
Source Step = 51.3759%
Source Step = 51.5257%
Source Step = 51.6755%
Source Step = 51.8253%
Source Step = 51.9751%
vernier = 0.00741577
Source Step = 52.1849%
Source Step = 52.4096%
Source Step = 52.6343%
Source Step = 52.859%
Source Step = 53.0838%
vernier = 0.0111237
Source Step = 53.3871%
Source Step = 53.7242%
Source Step = 54.0613%
Source Step = 54.3984%
Source Step = 54.7354%
vernier = 0.0166855
Source Step = 55.1737%
Source Step = 55.6793%
Source Step = 56.1849%
Source Step = 56.6905%
Source Step = 57.1961%
vernier = 0.0250282
Source Step = 57.8282%
Source Step = 58.5866%
Source Step = 59.345%
Source Step = 60.1035%
Source Step = 60.8619%
vernier = 0.0375423
Source Step = 61.772%
Source Step = 62.9097%
Source Step = 64.0473%
Source Step = 65.1849%
Source Step = 66.3226%
vernier = 0.0563135
Source Step = 67.6309%
Source Step = 69.3374%
Source Step = 71.0438%
Source Step = 72.7503%
Source Step = 74.4568%
vernier = 0.0844703
Source Step = 76.3339%
Source Step = 78.8936%
Source Step = 81.4533%
Source Step = 84.013%
Source Step = 86.5727%
vernier = 0.126705
Source Step = 89.2604%
Source Step = 93.1%
Source Step = 93.5199%
Source Step = 93.5799%
Source Step = 93.6399%
Source Step = 93.6999%
Source Step = 93.7599%
Source Step = 93.8199%
Source Step = 93.8799%
Source Step = 93.9399%
Source Step = 93.9998%
Source Step = 94.0598%
Source Step = 94.1198%
Source Step = 94.1798%
Source Step = 94.2398%
Source Step = 94.2998%
Source Step = 94.3598%
Source Step = 94.4198%
Source Step = 94.4798%
Source Step = 94.5398%
Source Step = 94.5998%
Source Step = 94.6598%
Source Step = 94.7198%
Source Step = 94.7798%
Source Step = 94.8398%
Source Step = 94.8997%
Source Step = 94.9597%
Source Step = 95.0197%
Source Step = 95.0797%
Source Step = 95.1397%
Source Step = 95.1997%
Source Step = 95.2597%
Source Step = 95.3197%
Source Step = 95.3797%
Source Step = 95.4397%
vernier = 0.00296966
Source Step = 95.5237%
Source Step = 95.6137%
Source Step = 95.7037%
Source Step = 95.7936%
Source Step = 95.8836%
vernier = 0.00445449
Source Step = 96.0051%
Source Step = 96.1401%
Source Step = 96.2751%
Source Step = 96.4101%
Source Step = 96.5451%
vernier = 0.00668173
Source Step = 96.7205%
Source Step = 96.923%
Source Step = 97.1255%
Source Step = 97.328%
Source Step = 97.5304%
vernier = 0.0100226
Source Step = 97.7835%
Source Step = 98.0873%
Source Step = 98.391%
Source Step = 98.6947%
Source Step = 98.9984%
vernier = 0.0150339
Source Step = 99.3629%
Source Step = 99.8184%
Source stepping succeeded in finding the operating point.

Ignoring empty pin current: Ix(u1:1)
Ignoring empty pin current: Ix(u1:2)
Ignoring empty pin current: Ix(u1:3)
Ignoring empty pin current: Ix(u1:4)
Ignoring empty pin current: Ix(u1:5)
Ignoring empty pin current: Ix(u1:1)
Ignoring empty pin current: Ix(u1:2)
Ignoring empty pin current: Ix(u1:3)
Ignoring empty pin current: Ix(u1:4)
Ignoring empty pin current: Ix(u1:5)
Changing Tseed to 9.76563e-011
Changing Tseed to 9.76562e-013
Heightened Def Con from 2.38085e-012 to 1.1e-009
Heightened Def Con from 4.10605e-007 to 4.12605e-007
Heightened Def Con from 4.65112e-007 to 4.70112e-007
Heightened Def Con from 4.71049e-007 to 4.7119e-007
Heightened Def Con from 4.71258e-007 to 4.71258e-007
Heightened Def Con from 4.71259e-007 to 4.71509e-007
Heightened Def Con from 4.71509e-007 to 4.71524e-007
Heightened Def Con from 4.71525e-007 to 4.71541e-007
Heightened Def Con from 4.71541e-007 to 4.71572e-007
Heightened Def Con from 4.71572e-007 to 4.71697e-007
Heightened Def Con from 4.71697e-007 to 4.96697e-007
Heightened Def Con from 4.96703e-007 to 4.99703e-007
Heightened Def Con from 5.53672e-007 to 5.54673e-007
Heightened Def Con from 5.54673e-007 to 5.54677e-007
Heightened Def Con from 5.5469e-007 to 5.5469e-007
Heightened Def Con from 5.5469e-007 to 5.5469e-007
Heightened Def Con from 5.5469e-007 to 5.5469e-007
Heightened Def Con from 5.5469e-007 to 5.54692e-007
Heightened Def Con from 5.54693e-007 to 5.54693e-007
Heightened Def Con from 5.54693e-007 to 5.54693e-007
Heightened Def Con from 5.54693e-007 to 5.54693e-007
Heightened Def Con from 5.54693e-007 to 5.54694e-007
Heightened Def Con from 5.54696e-007 to 5.54696e-007
Heightened Def Con from 5.54696e-007 +to 5.54696e-007
Heightened Def Con from 5.54696e-007 to 5.54698e-007
Heightened Def Con from 5.54698e-007 to 5.54702e-007
Heightened Def Con from 5.54704e-007 +to 5.54706e-007
Heightened Def Con from 5.54717e-007 to 5.54719e-007
Heightened Def Con from 5.54719e-007 to 5.54719e-007
Heightened Def Con from 5.54719e-007 to 5.5472e-007
Heightened Def Con from 5.5472e-007 to 5.54722e-007
Heightened Def Con from 5.54722e-007 to 5.54722e-007
Heightened Def Con from 5.54722e-007 to 5.54722e-007
Heightened Def Con from 5.54722e-007 to 5.54722e-007
Heightened Def Con from 5.54722e-007 to 5.54722e-007
Heightened Def Con from 5.54722e-007 to 5.54722e-007
Heightened Def Con from 5.54722e-007 to 5.54722e-007
Heightened Def Con from 5.54722e-007 to 5.54722e-007
Heightened Def Con from 5.54722e-007 to 5.54722e-007
Heightened Def Con from 5.54722e-007 to 5.54722e-007
Heightened Def Con from 5.54722e-007 to 5.54723e-007
Heightened Def Con from 5.54724e-007 to 5.54724e-007
Heightened Def Con from 5.54724e-007 to 5.54724e-007
Heightened Def Con from 5.54724e-007 +to 5.54726e-007
Heightened Def Con from 5.54728e-007 to 5.54728e-007
Heightened Def Con from 5.54728e-007 to 5.54728e-007
Heightened Def Con from 5.54728e-007 to 5.54728e-007
Heightened Def Con from 5.54728e-007 to 5.54728e-007
Heightened Def Con from 5.54728e-007 to 5.54728e-007
Heightened Def Con from 5.54728e-007 to 5.54728e-007
Heightened Def Con from 5.54728e-007 to 5.54729e-007
Heightened Def Con from 5.54729e-007 +to 5.54731e-007
Heightened Def Con from 5.54734e-007 to 5.54735e-007
Heightened Def Con from 5.54737e-007 to 5.54739e-007
Heightened Def Con from 5.54739e-007 to 5.54741e-007
Heightened Def Con from 5.54741e-007 to 5.54741e-007
Heightened Def Con from 5.54742e-007 to 5.54746e-007
Heightened Def Con from 5.54751e-007 to 5.54751e-007
Heightened Def Con from 5.54751e-007 to 5.54751e-007
Heightened Def Con from 5.54751e-007 to 5.54751e-007
Heightened Def Con from 5.54751e-007 to 5.54753e-007
Heightened Def Con from 5.54753e-007 to 5.54754e-007
Heightened Def Con from 5.54754e-007 to 5.54758e-007
Heightened Def Con from 5.54759e-007 to 5.54759e-007
Heightened Def Con from 5.54759e-007 to 5.54763e-007
Heightened Def Con from 5.54764e-007 to 5.54764e-007
Heightened Def Con from 5.54766e-007 to 5.54766e-007
Heightened Def Con from 5.54766e-007 to 5.54766e-007
Heightened Def Con from 5.54766e-007 to 5.54766e-007
Heightened Def Con from 5.54767e-007 to 5.54767e-007
Heightened Def Con from 5.54767e-007 to 5.54767e-007
Heightened Def Con from 5.54767e-007 to 5.54767e-007
Heightened Def Con from 5.54767e-007 to 5.54767e-007
Heightened Def Con from 5.54767e-007 to 5.54767e-007
Heightened Def Con from 5.54767e-007 to 5.54767e-007
Heightened Def Con from 5.54767e-007 to 5.54767e-007
Heightened Def Con from 5.54768e-007 to 5.54768e-007
Heightened Def Con from 5.54768e-007 to 5.54771e-007
Heightened Def Con from 5.54772e-007 to 5.54774e-007
Heightened Def Con from 5.54774e-007 to 5.54776e-007
Heightened Def Con from 5.54778e-007 to 5.54778e-007
Heightened Def Con from 5.54778e-007 to 5.54779e-007
Heightened Def Con from 5.54779e-007 to 5.54781e-007
Heightened Def Con from 5.54781e-007 ++to 5.54781e-007
Heightened Def Con from 5.54781e-007 to 5.54781e-007
Heightened Def Con from 5.54781e-007 to 5.54783e-007
Heightened Def Con from 5.54783e-007 to 5.54785e-007
Heightened Def Con from 5.54786e-007 to 5.54786e-007
Heightened Def Con from 5.54787e-007 to 5.54789e-007
Heightened Def Con from 5.54789e-007 to 5.5479e-007
Heightened Def Con from 5.5479e-007 to 5.5479e-007
Heightened Def Con from 5.54791e-007 to 5.54791e-007
Heightened Def Con from 5.54791e-007 to 5.54791e-007
Heightened Def Con from 5.54792e-007 to 5.54792e-007
Heightened Def Con from 5.54792e-007 to 5.54792e-007
Heightened Def Con from 5.54792e-007 to 5.54794e-007
Heightened Def Con from 5.54794e-007 to 5.54797e-007
Heightened Def Con from 5.54797e-007 to 5.54797e-007
Heightened Def Con from 5.54797e-007 to 5.54801e-007
Heightened Def Con from 5.54805e-007 to 5.54807e-007
Heightened Def Con from 5.54807e-007 to 5.54807e-007
Heightened Def Con from 5.54807e-007 +to 5.54809e-007
Heightened Def Con from 5.54809e-007 to 5.54809e-007
Heightened Def Con from 5.54809e-007 to 5.54809e-007
Heightened Def Con from 5.54809e-007 to 5.5481e-007
Heightened Def Con from 5.5481e-007 ++to 5.5481e-007
Heightened Def Con from 5.5481e-007 to 5.5481e-007
Heightened Def Con from 5.5481e-007 to 5.5481e-007
Heightened Def Con from 5.5481e-007 to 5.5481e-007
Heightened Def Con from 5.5481e-007 to 5.54812e-007
Heightened Def Con from 5.54812e-007 to 5.54812e-007
Heightened Def Con from 5.54812e-007 to 5.54815e-007
Heightened Def Con from 5.54815e-007 to 5.54815e-007
Heightened Def Con from 5.54815e-007 to 5.54815e-007
Heightened Def Con from 5.54815e-007 to 5.54815e-007
Heightened Def Con from 5.54815e-007 to 5.54815e-007
Heightened Def Con from 5.54815e-007 to 5.54819e-007
Heightened Def Con from 5.54819e-007 to 5.54819e-007
Heightened Def Con from 5.54819e-007 to 5.54819e-007
Heightened Def Con from 5.54819e-007 to 5.54819e-007
Heightened Def Con from 5.54819e-007 to 5.54822e-007
Heightened Def Con from 5.54822e-007 to 5.54822e-007
Heightened Def Con from 5.54822e-007 to 5.54824e-007
Heightened Def Con from 5.54824e-007 to 5.54824e-007
Heightened Def Con from 5.54824e-007 to 5.54824e-007
Heightened Def Con from 5.54824e-007 to 5.54824e-007
Heightened Def Con from 5.54824e-007 ++to 5.54824e-007
Heightened Def Con from 5.54824e-007 to 5.54826e-007
Heightened Def Con from 5.54828e-007 to 5.5483e-007
Heightened Def Con from 5.5483e-007 to 5.54832e-007
Heightened Def Con from 5.54835e-007 to 5.54836e-007
Heightened Def Con from 5.54836e-007 to 5.54836e-007
Heightened Def Con from 5.54836e-007 to 5.54836e-007
Heightened Def Con from 5.54837e-007 to 5.54838e-007
Heightened Def Con from 5.54838e-007 to 5.54838e-007
Heightened Def Con from 5.54839e-007 to 5.54841e-007
Heightened Def Con from 5.54841e-007 +to 5.54841e-007
Heightened Def Con from 5.54841e-007 to 5.54841e-007
Heightened Def Con from 5.54841e-007 to 5.54841e-007
Heightened Def Con from 5.54841e-007 to 5.54843e-007
Heightened Def Con from 5.54843e-007 to 5.54843e-007
Heightened Def Con from 5.54843e-007 to 5.54843e-007
Heightened Def Con from 5.54843e-007 to 5.54844e-007
Heightened Def Con from 5.54844e-007 to 5.54847e-007
Heightened Def Con from 5.54849e-007 to 5.54849e-007
Heightened Def Con from 5.5485e-007 to 5.54852e-007
Heightened Def Con from 5.54852e-007 to 5.54852e-007
Heightened Def Con from 5.54852e-007 to 5.54853e-007
Heightened Def Con from 5.54853e-007 to 5.54853e-007
Heightened Def Con from 5.54853e-007 to 5.54855e-007
Heightened Def Con from 5.54855e-007 to 5.54857e-007
Heightened Def Con from 5.54872e-007 to 5.54872e-007
Heightened Def Con from 5.54872e-007 to 5.54872e-007
Heightened Def Con from 5.54872e-007 to 5.54872e-007
Heightened Def Con from 5.54872e-007 +to 5.54872e-007
Heightened Def Con from 5.54872e-007 +to 5.54874e-007
Heightened Def Con from 5.54886e-007 to 5.54886e-007
Heightened Def Con from 5.54886e-007 to 5.54886e-007
Heightened Def Con from 5.54886e-007 to 5.54888e-007
Heightened Def Con from 5.54888e-007 to 5.54888e-007
Heightened Def Con from 5.54888e-007 to 5.5489e-007
Heightened Def Con from 5.54891e-007 +to 5.54891e-007
Heightened Def Con from 5.54891e-007 +to 5.54891e-007
Heightened Def Con from 5.54892e-007 to 5.54892e-007
Heightened Def Con from 5.54892e-007 to 5.54892e-007
Heightened Def Con from 5.54892e-007 to 5.54892e-007
Heightened Def Con from 5.54893e-007 to 5.54893e-007
Heightened Def Con from 5.54894e-007 to 5.54897e-007
Heightened Def Con from 5.54902e-007 to 5.54902e-007
Heightened Def Con from 5.54902e-007 to 5.54902e-007
Heightened Def Con from 5.54902e-007 to 5.54903e-007
Heightened Def Con from 5.54903e-007 to 5.54903e-007
Heightened Def Con from 5.54903e-007 to 5.54903e-007
Heightened Def Con from 5.54903e-007 to 5.54905e-007
Heightened Def Con from 5.54905e-007 to 5.54905e-007
Heightened Def Con from 5.54905e-007 to 5.54905e-007
Heightened Def Con from 5.54905e-007 to 5.54906e-007
Heightened Def Con from 5.54906e-007 to 5.54906e-007
Heightened Def Con from 5.54906e-007 to 5.54906e-007
Heightened Def Con from 5.54906e-007 to 5.54906e-007
Heightened Def Con from 5.54906e-007 to 5.54908e-007
Heightened Def Con from 5.54908e-007 to 5.54908e-007
Heightened Def Con from 5.54908e-007 to 5.54909e-007
Heightened Def Con from 5.54909e-007 to 5.54909e-007
Heightened Def Con from 5.54909e-007 to 5.54909e-007
Heightened Def Con from 5.54909e-007 to 5.54909e-007
Heightened Def Con from 5.54909e-007 to 5.54913e-007
Heightened Def Con from 5.54914e-007 to 5.54915e-007
Heightened Def Con from 5.54915e-007 to 5.54916e-007
Heightened Def Con from 5.54916e-007 to 5.54916e-007
Heightened Def Con from 5.54916e-007 to 5.54916e-007
Heightened Def Con from 5.54916e-007 +to 5.54916e-007
Heightened Def Con from 5.54916e-007 to 5.54916e-007
Heightened Def Con from 5.54916e-007 to 5.54918e-007
Heightened Def Con from 5.5492e-007 to 5.5492e-007
Heightened Def Con from 5.5492e-007 +to 5.5492e-007
Heightened Def Con from 5.5492e-007 to 5.54922e-007
Heightened Def Con from 5.54922e-007 to 5.54922e-007
Heightened Def Con from 5.54922e-007 +to 5.54924e-007
Heightened Def Con from 5.54924e-007 to 5.54928e-007
Heightened Def Con from 5.54929e-007 +to 5.54931e-007
Heightened Def Con from 5.54931e-007 to 5.54933e-007
Heightened Def Con from 5.54933e-007 to 5.54935e-007
Heightened Def Con from 5.54935e-007 to 5.54935e-007
Heightened Def Con from 5.54935e-007 to 5.54936e-007
Heightened Def Con from 5.54936e-007 to 5.54938e-007
Heightened Def Con from 5.54941e-007 to 5.54941e-007
Heightened Def Con from 5.54941e-007 to 5.54943e-007
Heightened Def Con from 5.54943e-007 to 5.54945e-007
Heightened Def Con from 5.54945e-007 ++to 5.54947e-007
Heightened Def Con from 5.54949e-007 to 5.54949e-007
Heightened Def Con from 5.54949e-007 to 5.54949e-007
Heightened Def Con from 5.54949e-007 to 5.54951e-007
Heightened Def Con from 5.54951e-007 to 5.54953e-007
Heightened Def Con from 5.54953e-007 to 5.54953e-007
Heightened Def Con from 5.54953e-007 to 5.54954e-007
Heightened Def Con from 5.54954e-007 to 5.54954e-007
Heightened Def Con from 5.54954e-007 +to 5.54956e-007
Heightened Def Con from 5.54956e-007 +to 5.54956e-007
Heightened Def Con from 5.54956e-007 to 5.54956e-007
Heightened Def Con from 5.54956e-007 to 5.54956e-007
Heightened Def Con from 5.54956e-007 to 5.5496e-007
Heightened Def Con from 5.55008e-007 +to 5.5501e-007
Heightened Def Con from 5.5501e-007 to 5.5501e-007
Heightened Def Con from 5.5501e-007 +to 5.5501e-007
Heightened Def Con from 5.5501e-007 to 5.55012e-007
Heightened Def Con from 5.55013e-007 to 5.55013e-007
Heightened Def Con from 5.55013e-007 to 5.55013e-007
Heightened Def Con from 5.55013e-007 to 5.55015e-007
Heightened Def Con from 5.55015e-007 to 5.55015e-007
Heightened Def Con from 5.55015e-007 to 5.55019e-007
Heightened Def Con from 5.55019e-007 to 5.55021e-007
Heightened Def Con from 5.55021e-007 +to 5.55021e-007
Heightened Def Con from 5.55021e-007 to 5.55025e-007
Heightened Def Con from 5.55026e-007 to 5.55026e-007
Heightened Def Con from 5.55027e-007 to 5.55027e-007
Heightened Def Con from 5.55027e-007 to 5.5503e-007
Heightened Def Con from 5.5503e-007 to 5.55031e-007
Heightened Def Con from 5.55032e-007 to 5.55032e-007
Heightened Def Con from 5.55032e-007 to 5.55032e-007
Heightened Def Con from 5.55032e-007 to 5.55032e-007
Heightened Def Con from 5.55032e-007 to 5.55034e-007
Heightened Def Con from 5.55034e-007 to 5.55034e-007
Heightened Def Con from 5.55034e-007 to 5.55034e-007
Heightened Def Con from 5.55034e-007 to 5.55038e-007
Heightened Def Con from 5.55038e-007 to 5.55038e-007
Heightened Def Con from 5.55038e-007 to 5.55038e-007
Heightened Def Con from 5.55039e-007 to 5.55039e-007
Heightened Def Con from 5.55039e-007 to 5.55039e-007
Heightened Def Con from 5.55039e-007 to 5.55039e-007
Heightened Def Con from 5.55039e-007 to 5.55039e-007
Heightened Def Con from 5.55039e-007 to 5.5504e-007
Heightened Def Con from 5.5504e-007 to 5.5504e-007
Heightened Def Con from 5.5504e-007 to 5.5504e-007
Heightened Def Con from 5.5504e-007 to 5.5504e-007
Heightened Def Con from 5.5504e-007 to 5.55041e-007
Heightened Def Con from 5.55041e-007 to 5.55043e-007
Heightened Def Con from 5.55043e-007 to 5.55043e-007
Heightened Def Con from 5.55043e-007 to 5.55043e-007
Heightened Def Con from 5.55043e-007 to 5.55043e-007
Heightened Def Con from 5.55043e-007 to 5.55043e-007
Heightened Def Con from 5.55044e-007 to 5.55044e-007
Heightened Def Con from 5.55044e-007 to 5.55044e-007
Heightened Def Con from 5.55044e-007 to 5.55044e-007
Heightened Def Con from 5.55044e-007 to 5.55044e-007
Heightened Def Con from 5.55044e-007 to 5.55046e-007
Heightened Def Con from 5.55046e-007 to 5.55046e-007
Heightened Def Con from 5.55046e-007 to 5.55046e-007
Heightened Def Con from 5.55046e-007 to 5.55048e-007
Heightened Def Con from 5.55048e-007 to 5.55048e-007
Heightened Def Con from 5.55048e-007 to 5.55048e-007
Heightened Def Con from 5.55048e-007 to 5.55052e-007
Heightened Def Con from 5.55052e-007 to 5.55054e-007
Heightened Def Con from 5.55054e-007 to 5.55054e-007
Heightened Def Con from 5.55054e-007 to 5.55054e-007
Heightened Def Con from 5.55054e-007 to 5.55056e-007
Heightened Def Con from 5.55056e-007 to 5.55058e-007
Heightened Def Con from 5.55058e-007 +to 5.5506e-007
Heightened Def Con from 5.5506e-007 to 5.5506e-007
Heightened Def Con from 5.5506e-007 to 5.5506e-007
Heightened Def Con from 5.5506e-007 to 5.55061e-007
Heightened Def Con from 5.55061e-007 to 5.55061e-007
Heightened Def Con from 5.55061e-007 to 5.55061e-007
Heightened Def Con from 5.55061e-007 to 5.55063e-007
Heightened Def Con from 5.55063e-007 to 5.55065e-007
Heightened Def Con from 5.55065e-007 to 5.55067e-007
Heightened Def Con from 5.55067e-007 to 5.55067e-007
Heightened Def Con from 5.55068e-007 to 5.55068e-007
Heightened Def Con from 5.55068e-007 to 5.55068e-007
Heightened Def Con from 5.55068e-007 to 5.55069e-007
Heightened Def Con from 5.55069e-007 to 5.55069e-007
Heightened Def Con from 5.55069e-007 to 5.55069e-007
Heightened Def Con from 5.55069e-007 to 5.55069e-007
Heightened Def Con from 5.55069e-007 to 5.55069e-007
Heightened Def Con from 5.5507e-007 to 5.5507e-007
Heightened Def Con from 5.5507e-007 to 5.5507e-007
Heightened Def Con from 5.5507e-007 to 5.5507e-007
Heightened Def Con from 5.5507e-007 to 5.5507e-007
Heightened Def Con from 5.5507e-007 to 5.55071e-007
Heightened Def Con from 5.55071e-007 to 5.55071e-007
Heightened Def Con from 5.55071e-007 to 5.55071e-007
Heightened Def Con from 5.55071e-007 to 5.55071e-007
Heightened Def Con from 5.55071e-007 to 5.55071e-007
Heightened Def Con from 5.55071e-007 to 5.55072e-007
Heightened Def Con from 5.55072e-007 +to 5.55072e-007
Heightened Def Con from 5.55072e-007 to 5.55072e-007
Heightened Def Con from 5.55072e-007 to 5.55074e-007
Heightened Def Con from 5.55074e-007 to 5.55076e-007
Heightened Def Con from 5.55088e-007 +to 5.5509e-007
Heightened Def Con from 5.5509e-007 to 5.5509e-007
Heightened Def Con from 5.5509e-007 to 5.5509e-007
Heightened Def Con from 5.5509e-007 to 5.55091e-007
Heightened Def Con from 5.55091e-007 to 5.55091e-007
Heightened Def Con from 5.55091e-007 to 5.55093e-007
Heightened Def Con from 5.55093e-007 to 5.55093e-007
Heightened Def Con from 5.55093e-007 to 5.55097e-007
Heightened Def Con from 5.55097e-007 to 5.55097e-007
Heightened Def Con from 5.55097e-007 to 5.55101e-007
Heightened Def Con from 5.55101e-007 +to 5.55101e-007
Heightened Def Con from 5.55101e-007 to 5.55103e-007
Heightened Def Con from 5.55103e-007 to 5.55103e-007
Heightened Def Con from 5.55104e-007 to 5.55104e-007
Heightened Def Con from 5.55104e-007 to 5.55106e-007
Heightened Def Con from 5.55106e-007 to 5.55106e-007
Heightened Def Con from 5.55106e-007 to 5.55106e-007
Heightened Def Con from 5.5511e-007 +to 5.55112e-007
Heightened Def Con from 5.55112e-007 to 5.55114e-007
Heightened Def Con from 5.55114e-007 to 5.55114e-007
Heightened Def Con from 5.55114e-007 to 5.55114e-007
Heightened Def Con from 5.55114e-007 to 5.55115e-007
Heightened Def Con from 5.55115e-007 to 5.55117e-007
Heightened Def Con from 5.55117e-007 to 5.55117e-007
Heightened Def Con from 5.55117e-007 to 5.55121e-007
Heightened Def Con from 5.55151e-007 to 5.55153e-007
Heightened Def Con from 5.55154e-007 to 5.55158e-007
Heightened Def Con from 5.55159e-007 to 5.55159e-007
Heightened Def Con from 5.55159e-007 to 5.5516e-007
Heightened Def Con from 5.5516e-007 to 5.55161e-007
Heightened Def Con from 5.55161e-007 to 5.55163e-007
Heightened Def Con from 5.55163e-007 to 5.55163e-007
Heightened Def Con from 5.55163e-007 to 5.55165e-007
Heightened Def Con from 5.55165e-007 to 5.55167e-007
Heightened Def Con from 5.55167e-007 to 5.55171e-007
Heightened Def Con from 5.55171e-007 to 5.55171e-007
Heightened Def Con from 5.55171e-007 to 5.55173e-007
Heightened Def Con from 5.55173e-007 to 5.55173e-007
Heightened Def Con from 5.55174e-007 to 5.55176e-007
Heightened Def Con from 5.55176e-007 to 5.55176e-007
Heightened Def Con from 5.55177e-007 to 5.55177e-007
Heightened Def Con from 5.55177e-007 to 5.55179e-007
Heightened Def Con from 5.55179e-007 to 5.55183e-007
Heightened Def Con from 5.55183e-007 to 5.55183e-007
Heightened Def Con from 5.55183e-007 to 5.55183e-007
Heightened Def Con from 5.55184e-007 to 5.55184e-007
Heightened Def Con from 5.55184e-007 to 5.55184e-007
Heightened Def Con from 5.55184e-007 to 5.55184e-007
Heightened Def Con from 5.55185e-007 to 5.55187e-007
Heightened Def Con from 5.55187e-007 to 5.55187e-007
Heightened Def Con from 5.55188e-007 to 5.55188e-007
Heightened Def Con from 5.55188e-007 to 5.5519e-007
Heightened Def Con from 5.55191e-007 to 5.55193e-007
Heightened Def Con from 5.55193e-007 +to 5.55195e-007
Heightened Def Con from 5.55195e-007 to 5.55195e-007
Heightened Def Con from 5.55195e-007 to 5.55195e-007
Heightened Def Con from 5.55195e-007 to 5.55195e-007
Heightened Def Con from 5.55196e-007 to 5.55196e-007
Heightened Def Con from 5.55196e-007 to 5.55196e-007
Heightened Def Con from 5.55196e-007 to 5.55196e-007
Heightened Def Con from 5.55196e-007 to 5.552e-007
Heightened Def Con from 5.55208e-007 to 5.55208e-007
Heightened Def Con from 5.55208e-007 to 5.55208e-007
Heightened Def Con from 5.55208e-007 to 5.55208e-007
Heightened Def Con from 5.55208e-007 to 5.55209e-007
Heightened Def Con from 5.55209e-007 to 5.55209e-007
Heightened Def Con from 5.55209e-007 to 5.55209e-007
Heightened Def Con from 5.55209e-007 to 5.55209e-007
Heightened Def Con from 5.55209e-007 +to 5.55209e-007
Heightened Def Con from 5.55209e-007 to 5.55209e-007
Heightened Def Con from 5.55209e-007 ++to 5.55211e-007
Heightened Def Con from 5.55211e-007 to 5.55211e-007
Heightened Def Con from 5.55211e-007 to 5.55213e-007
Heightened Def Con from 5.55213e-007 to 5.55213e-007
Heightened Def Con from 5.55213e-007 to 5.55215e-007
Heightened Def Con from 5.55215e-007 to 5.55216e-007
Heightened Def Con from 5.55216e-007 to 5.55216e-007
Heightened Def Con from 5.55216e-007 to 5.55216e-007
Heightened Def Con from 5.55216e-007 to 5.55216e-007
Heightened Def Con from 5.55216e-007 to 5.55216e-007
Heightened Def Con from 5.55216e-007 +to 5.5522e-007
Heightened Def Con from 5.55224e-007 to 5.55224e-007
Heightened Def Con from 5.55224e-007 to 5.55224e-007
Heightened Def Con from 5.55224e-007 +to 5.55224e-007
Heightened Def Con from 5.55224e-007 to 5.55226e-007
Heightened Def Con from 5.55226e-007 +to 5.55228e-007
Heightened Def Con from 5.55228e-007 +to 5.55228e-007
Heightened Def Con from 5.55228e-007 to 5.5523e-007
Heightened Def Con from 5.55231e-007 to 5.55233e-007
Heightened Def Con from 5.55233e-007 to 5.55233e-007
Heightened Def Con from 5.55233e-007 to 5.55235e-007
Heightened Def Con from 5.55235e-007 to 5.55235e-007
Heightened Def Con from 5.55235e-007 to 5.55237e-007
Heightened Def Con from 5.55237e-007 to 5.55238e-007
Heightened Def Con from 5.55238e-007 to 5.55242e-007
Heightened Def Con from 5.55242e-007 to 5.55242e-007
Heightened Def Con from 5.55242e-007 to 5.55242e-007
Heightened Def Con from 5.55242e-007 to 5.55246e-007
Heightened Def Con from 5.55246e-007 to 5.55246e-007
Heightened Def Con from 5.55248e-007 to 5.55248e-007
Heightened Def Con from 5.55248e-007 to 5.55252e-007
Heightened Def Con from 5.55252e-007 to 5.55256e-007
Heightened Def Con from 5.55257e-007 to 5.55257e-007
Heightened Def Con from 5.55257e-007 to 5.55258e-007
Heightened Def Con from 5.55258e-007 to 5.5526e-007
Heightened Def Con from 5.5526e-007 to 5.5526e-007
Heightened Def Con from 5.5526e-007 to 5.55262e-007
Heightened Def Con from 5.55262e-007 to 5.55264e-007
Heightened Def Con from 5.55264e-007 to 5.55266e-007
Heightened Def Con from 5.55266e-007 to 5.55266e-007
Heightened Def Con from 5.55266e-007 to 5.55266e-007
Heightened Def Con from 5.55266e-007 to 5.55266e-007
Heightened Def Con from 5.55267e-007 to 5.55267e-007
Heightened Def Con from 5.55267e-007 to 5.55267e-007
Heightened Def Con from 5.55268e-007 to 5.55268e-007
Heightened Def Con from 5.55268e-007 to 5.55272e-007
Heightened Def Con from 5.55273e-007 to 5.55273e-007
Heightened Def Con from 5.55273e-007 to 5.55273e-007
Heightened Def Con from 5.55273e-007 to 5.55277e-007
Heightened Def Con from 5.55278e-007 to 5.55278e-007
Heightened Def Con from 5.55278e-007 to 5.5528e-007
Heightened Def Con from 5.55284e-007 to 5.55284e-007
Heightened Def Con from 5.55284e-007 to 5.55284e-007
Heightened Def Con from 5.55284e-007 +to 5.55286e-007
Heightened Def Con from 5.5529e-007 to 5.5529e-007
Heightened Def Con from 5.5529e-007 to 5.5529e-007
Heightened Def Con from 5.5529e-007 to 5.5529e-007
Heightened Def Con from 5.5529e-007 to 5.5529e-007
Heightened Def Con from 5.5529e-007 to 5.5529e-007
Heightened Def Con from 5.5529e-007 to 5.5529e-007
Heightened Def Con from 5.5529e-007 to 5.55291e-007
Heightened Def Con from 5.55291e-007 to 5.55291e-007
Heightened Def Con from 5.55291e-007 +to 5.55291e-007
Heightened Def Con from 5.55291e-007 to 5.55291e-007
Heightened Def Con from 5.55292e-007 +to 5.55292e-007
Heightened Def Con from 5.55292e-007 to 5.55294e-007
Heightened Def Con from 5.55294e-007 +to 5.55295e-007
Heightened Def Con from 5.55295e-007 to 5.55295e-007
Heightened Def Con from 5.55295e-007 to 5.55295e-007
Heightened Def Con from 5.55295e-007 to 5.55299e-007
Heightened Def Con from 5.55299e-007 to 5.55299e-007
Heightened Def Con from 5.55299e-007 to 5.55299e-007
Heightened Def Con from 5.55299e-007 to 5.55299e-007
Heightened Def Con from 5.55299e-007 to 5.55299e-007
Heightened Def Con from 5.55299e-007 +to 5.55301e-007
Heightened Def Con from 5.55301e-007 to 5.55305e-007
Heightened Def Con from 5.55309e-007 to 5.55309e-007
Heightened Def Con from 5.55309e-007 to 5.55311e-007
Heightened Def Con from 5.55311e-007 to 5.55312e-007
Heightened Def Con from 5.55312e-007 to 5.55312e-007
Heightened Def Con from 5.55312e-007 to 5.55312e-007
Heightened Def Con from 5.55312e-007 to 5.55313e-007
Heightened Def Con from 5.55314e-007 to 5.55314e-007
Heightened Def Con from 5.55314e-007 to 5.55314e-007
Heightened Def Con from 5.55314e-007 to 5.55314e-007
Heightened Def Con from 5.55314e-007 to 5.55314e-007
Heightened Def Con from 5.55314e-007 to 5.55314e-007
Heightened Def Con from 5.55314e-007 +to 5.55316e-007
Heightened Def Con from 5.55316e-007 to 5.55316e-007
Heightened Def Con from 5.55317e-007 to 5.55319e-007
Heightened Def Con from 5.55338e-007 +to 5.5534e-007
Heightened Def Con from 5.5534e-007 to 5.55342e-007
Heightened Def Con from 5.55342e-007 to 5.55342e-007
Heightened Def Con from 5.55342e-007 to 5.55344e-007
Heightened Def Con from 5.55344e-007 to 5.55344e-007
Heightened Def Con from 5.55344e-007 to 5.55344e-007
Heightened Def Con from 5.55344e-007 to 5.55344e-007
Heightened Def Con from 5.55344e-007 to 5.55344e-007
Heightened Def Con from 5.55344e-007 to 5.55345e-007
Heightened Def Con from 5.55345e-007 to 5.55345e-007
Heightened Def Con from 5.55345e-007 to 5.55345e-007
Heightened Def Con from 5.55345e-007 to 5.55345e-007
Heightened Def Con from 5.55345e-007 to 5.55345e-007
Heightened Def Con from 5.55345e-007 to 5.55345e-007
Heightened Def Con from 5.55346e-007 to 5.55346e-007
Heightened Def Con from 5.55346e-007 to 5.55348e-007
Heightened Def Con from 5.55348e-007 to 5.55348e-007
Heightened Def Con from 5.55348e-007 to 5.5535e-007
Heightened Def Con from 5.5535e-007 ++to 5.55352e-007
Heightened Def Con from 5.55352e-007 to 5.55352e-007
Heightened Def Con from 5.55352e-007 to 5.55352e-007
Heightened Def Con from 5.55352e-007 to 5.55353e-007
Heightened Def Con from 5.55353e-007 to 5.55356e-007
Heightened Def Con from 5.55381e-007 to 5.55381e-007
Heightened Def Con from 5.55381e-007 to 5.55381e-007
Heightened Def Con from 5.55381e-007 to 5.55381e-007
Heightened Def Con from 5.55381e-007 to 5.55381e-007
Heightened Def Con from 5.55381e-007 to 5.55381e-007
Heightened Def Con from 5.55381e-007 to 5.55381e-007
Heightened Def Con from 5.55381e-007 to 5.55383e-007
Heightened Def Con from 5.55385e-007 to 5.55387e-007
Heightened Def Con from 5.55387e-007 +to 5.55391e-007
Heightened Def Con from 5.55391e-007 to 5.55391e-007
Heightened Def Con from 5.55391e-007 to 5.55393e-007
Heightened Def Con from 5.55393e-007 to 5.55397e-007
Heightened Def Con from 5.55404e-007 to 5.55404e-007
Heightened Def Con from 5.55404e-007 to 5.55404e-007
Heightened Def Con from 5.55404e-007 to 5.55406e-007
Heightened Def Con from 5.55406e-007 to 5.55406e-007
Heightened Def Con from 5.55406e-007 to 5.55408e-007
Heightened Def Con from 5.55409e-007 to 5.55409e-007
Heightened Def Con from 5.55409e-007 to 5.55411e-007
Heightened Def Con from 5.55411e-007 to 5.55413e-007
Heightened Def Con from 5.55413e-007 +to 5.55415e-007
Heightened Def Con from 5.55415e-007 to 5.55415e-007
Heightened Def Con from 5.55415e-007 to 5.55415e-007
Heightened Def Con from 5.55415e-007 to 5.55416e-007
Heightened Def Con from 5.55417e-007 to 5.55417e-007
Heightened Def Con from 5.55417e-007 to 5.55417e-007
Heightened Def Con from 5.55417e-007 to 5.55419e-007
Heightened Def Con from 5.55419e-007 to 5.55419e-007
Heightened Def Con from 5.55419e-007 to 5.55421e-007
Heightened Def Con from 5.55421e-007 to 5.55421e-007
Heightened Def Con from 5.55422e-007 to 5.55422e-007
Heightened Def Con from 5.55422e-007 +to 5.55422e-007
Heightened Def Con from 5.55422e-007 to 5.55424e-007
Heightened Def Con from 5.55424e-007 to 5.55424e-007
Heightened Def Con from 5.55424e-007 to 5.55424e-007
Heightened Def Con from 5.55424e-007 to 5.55424e-007
Heightened Def Con from 5.55424e-007 to 5.55426e-007
Heightened Def Con from 5.55426e-007 to 5.55426e-007
Heightened Def Con from 5.55426e-007 +++to 5.55426e-007
Heightened Def Con from 5.55426e-007 to 5.55428e-007
Heightened Def Con from 5.55428e-007 to 5.5543e-007
Heightened Def Con from 5.5543e-007 to 5.55434e-007
Heightened Def Con from 5.55437e-007 to 5.55437e-007
Heightened Def Con from 5.55437e-007 +to 5.55437e-007
Heightened Def Con from 5.55437e-007 to 5.55441e-007
Heightened Def Con from 5.55441e-007 to 5.55441e-007
Heightened Def Con from 5.55441e-007 to 5.55445e-007
Heightened Def Con from 5.55445e-007 to 5.55445e-007
Heightened Def Con from 5.55445e-007 +++to 5.55445e-007
Heightened Def Con from 5.55445e-007 to 5.55445e-007
Heightened Def Con from 5.55445e-007 to 5.55445e-007
Heightened Def Con from 5.55445e-007 +to 5.55446e-007
Heightened Def Con from 5.55446e-007 to 5.55446e-007
Heightened Def Con from 5.55446e-007 to 5.55446e-007
Heightened Def Con from 5.55446e-007 +to 5.55448e-007
Heightened Def Con from 5.55448e-007 to 5.55448e-007
Heightened Def Con from 5.55448e-007 to 5.55448e-007
Heightened Def Con from 5.55448e-007 to 5.5545e-007
Heightened Def Con from 5.5545e-007 +to 5.5545e-007
Heightened Def Con from 5.5545e-007 to 5.5545e-007
Heightened Def Con from 5.5545e-007 +to 5.55453e-007
Heightened Def Con from 5.55453e-007 to 5.55453e-007
Heightened Def Con from 5.55453e-007 to 5.55453e-007
Heightened Def Con from 5.55453e-007 to 5.55453e-007
Heightened Def Con from 5.55453e-007 to 5.55453e-007
Heightened Def Con from 5.55453e-007 +to 5.55453e-007
Heightened Def Con from 5.55454e-007 to 5.55454e-007
Heightened Def Con from 5.55454e-007 +to 5.55456e-007
Heightened Def Con from 5.55456e-007 ++to 5.55458e-007
Heightened Def Con from 5.55458e-007 to 5.55458e-007
Heightened Def Con from 5.55458e-007 to 5.55462e-007
Heightened Def Con from 5.55464e-007 to 5.55464e-007
Heightened Def Con from 5.55464e-007 to 5.55466e-007
Heightened Def Con from 5.55466e-007 to 5.5547e-007
Heightened Def Con from 5.55471e-007 to 5.55471e-007
Heightened Def Con from 5.55471e-007 to 5.55471e-007
Heightened Def Con from 5.55471e-007 +to 5.55475e-007
Heightened Def Con from 5.55475e-007 to 5.55475e-007
Heightened Def Con from 5.55475e-007 to 5.55475e-007
Heightened Def Con from 5.55475e-007 to 5.55475e-007
Heightened Def Con from 5.55475e-007 to 5.55477e-007
Heightened Def Con from 5.55478e-007 to 5.55478e-007
Heightened Def Con from 5.55478e-007 to 5.55478e-007
Heightened Def Con from 5.55478e-007 to 5.55478e-007
Heightened Def Con from 5.55478e-007 +to 5.55482e-007
Heightened Def Con from 5.55482e-007 to 5.55482e-007
Heightened Def Con from 5.55482e-007 to 5.55482e-007
Heightened Def Con from 5.55482e-007 +to 5.55482e-007
Heightened Def Con from 5.55482e-007 to 5.55482e-007
Heightened Def Con from 5.55482e-007 to 5.55482e-007
Heightened Def Con from 5.55482e-007 to 5.55483e-007
Heightened Def Con from 5.55483e-007 to 5.55483e-007
Heightened Def Con from 5.55484e-007 to 5.55484e-007
Heightened Def Con from 5.55484e-007 to 5.55486e-007
Heightened Def Con from 5.55487e-007 to 5.55487e-007
Heightened Def Con from 5.55487e-007 to 5.55487e-007
Heightened Def Con from 5.55487e-007 to 5.55487e-007
Heightened Def Con from 5.55487e-007 to 5.55491e-007
Heightened Def Con from 5.55491e-007 +to 5.55495e-007
Heightened Def Con from 5.55495e-007 to 5.55495e-007
Heightened Def Con from 5.55495e-007 ++to 5.55495e-007
Heightened Def Con from 5.55495e-007 to 5.55499e-007
Heightened Def Con from 5.55499e-007 to 5.555e-007
Heightened Def Con from 5.55501e-007 to 5.55505e-007
Heightened Def Con from 5.55506e-007 +to 5.55506e-007
Heightened Def Con from 5.55506e-007 to 5.55506e-007
Heightened Def Con from 5.55506e-007 to 5.55506e-007
Heightened Def Con from 5.55506e-007 to 5.55508e-007
Heightened Def Con from 5.5551e-007 to 5.5551e-007
Heightened Def Con from 5.5551e-007 to 5.55511e-007
Heightened Def Con from 5.55511e-007 to 5.55511e-007
Heightened Def Con from 5.55511e-007 to 5.55511e-007
Heightened Def Con from 5.55511e-007 +to 5.55513e-007
Heightened Def Con from 5.55513e-007 to 5.55513e-007
Heightened Def Con from 5.55513e-007 to 5.55517e-007
Heightened Def Con from 5.55519e-007 to 5.55519e-007
Heightened Def Con from 5.55519e-007 to 5.55519e-007
Heightened Def Con from 5.5552e-007 to 5.5552e-007
Heightened Def Con from 5.5552e-007 to 5.55524e-007
Heightened Def Con from 5.55525e-007 to 5.55525e-007
Heightened Def Con from 5.55525e-007 to 5.55526e-007
Heightened Def Con from 5.55526e-007 to 5.55526e-007
Heightened Def Con from 5.55526e-007 +to 5.55526e-007
Heightened Def Con from 5.55526e-007 to 5.55526e-007
Heightened Def Con from 5.55526e-007 to 5.55526e-007
Heightened Def Con from 5.55526e-007 ++to 5.55528e-007
Heightened Def Con from 5.55528e-007 +to 5.55532e-007
Heightened Def Con from 5.55535e-007 to 5.55535e-007
Heightened Def Con from 5.55535e-007 to 5.55537e-007
Heightened Def Con from 5.55537e-007 to 5.55537e-007
Heightened Def Con from 5.55537e-007 to 5.55541e-007
Heightened Def Con from 5.55541e-007 +to 5.55545e-007
Heightened Def Con from 5.55545e-007 to 5.55545e-007
Heightened Def Con from 5.55545e-007 to 5.55549e-007
Heightened Def Con from 5.55552e-007 to 5.55552e-007
Heightened Def Con from 5.55552e-007 to 5.55556e-007
Heightened Def Con from 5.55562e-007 to 5.55562e-007
Heightened Def Con from 5.55562e-007 to 5.55562e-007
Heightened Def Con from 5.55563e-007 to 5.55563e-007
Heightened Def Con from 5.55563e-007 to 5.55567e-007
Heightened Def Con from 5.55567e-007 to 5.55571e-007
Heightened Def Con from 5.55571e-007 to 5.55571e-007
Heightened Def Con from 5.55571e-007 to 5.55575e-007
Heightened Def Con from 5.55583e-007 to 5.55708e-007
Heightened Def Con from 5.55708e-007 to 5.63708e-007
Heightened Def Con from 6.22151e-007 to 6.25151e-007
Heightened Def Con from 6.27151e-007 to 6.29153e-007
Heightened Def Con from 6.29153e-007 to 6.29185e-007
Heightened Def Con from 6.29185e-007 to 6.29435e-007
Heightened Def Con from 6.2981e-007 to 6.29935e-007
Heightened Def Con from 6.29935e-007 to 6.30326e-007
Heightened Def Con from 6.30326e-007 to 6.30326e-007
Heightened Def Con from 6.30326e-007 to 6.3033e-007
Heightened Def Con from 6.30333e-007 to 6.30336e-007
Heightened Def Con from 6.30336e-007 to 6.3034e-007
Heightened Def Con from 6.3034e-007 to 6.3034e-007
Heightened Def Con from 6.3034e-007 to 6.30356e-007
Heightened Def Con from 6.30356e-007 to 6.30373e-007
Heightened Def Con from 6.30373e-007 to 6.30373e-007
Heightened Def Con from 6.30373e-007 to 6.30373e-007
Heightened Def Con from 6.30373e-007 to 6.30375e-007
Heightened Def Con from 6.30375e-007 to 6.30379e-007
Heightened Def Con from 6.30391e-007 to 6.30391e-007
Heightened Def Con from 6.30391e-007 to 6.30531e-007
Heightened Def Con from 6.30543e-007 to 6.31059e-007
Heightened Def Con from 6.31064e-007 to 6.31064e-007
Heightened Def Con from 6.31064e-007 to 6.31064e-007
Heightened Def Con from 6.31066e-007 to 6.31068e-007
Heightened Def Con from 6.31068e-007 to 6.31101e-007
Heightened Def Con from 6.31105e-007 to 6.31121e-007
Heightened Def Con from 6.31121e-007 to 6.31125e-007
Heightened Def Con from 6.31125e-007 to 6.31127e-007
Heightened Def Con from 6.31127e-007 to 6.31143e-007
Heightened Def Con from 6.31143e-007 +to 6.31145e-007
Heightened Def Con from 6.31145e-007 to 6.31161e-007
Heightened Def Con from 6.31161e-007 to 6.31178e-007
Heightened Def Con from 6.31178e-007 to 6.31179e-007
Heightened Def Con from 6.31179e-007 to 6.31196e-007
Heightened Def Con from 6.31198e-007 to 6.31198e-007
Heightened Def Con from 6.31198e-007 to 6.31199e-007
Heightened Def Con from 6.31199e-007 to 6.31199e-007
Heightened Def Con from 6.312e-007 to 6.312e-007
Heightened Def Con from 6.312e-007 to 6.31215e-007
Heightened Def Con from 6.31215e-007 to 6.31215e-007
Heightened Def Con from 6.31215e-007 to 6.31216e-007
Heightened Def Con from 6.31216e-007 to 6.31216e-007
Heightened Def Con from 6.31216e-007 to 6.31216e-007
Heightened Def Con from 6.31216e-007 to 6.31216e-007
Heightened Def Con from 6.31216e-007 +to 6.31234e-007
Heightened Def Con from 6.31238e-007 to 6.31238e-007
Heightened Def Con from 6.31238e-007 to 6.31238e-007
Heightened Def Con from 6.31239e-007 to 6.31254e-007
Heightened Def Con from 6.31255e-007 to 6.31259e-007
Heightened Def Con from 6.31259e-007 to 6.31259e-007
Heightened Def Con from 6.31259e-007 to 6.31259e-007
Heightened Def Con from 6.31259e-007 to 6.31261e-007
Heightened Def Con from 6.31261e-007 to 6.31263e-007
Heightened Def Con from 6.31263e-007 to 6.31295e-007
Heightened Def Con from 6.31295e-007 to 6.31296e-007
Heightened Def Con from 6.31296e-007 to 6.31296e-007
Heightened Def Con from 6.31296e-007 +to 6.31298e-007
Heightened Def Con from 6.31298e-007 to 6.313e-007
Heightened Def Con from 6.31301e-007 to 6.31334e-007
Heightened Def Con from 6.31334e-007 to 6.31334e-007
Heightened Def Con from 6.31334e-007 to 6.31336e-007
Heightened Def Con from 6.31337e-007 to 6.31354e-007
Heightened Def Con from 6.31354e-007 to 6.31354e-007
Heightened Def Con from 6.31354e-007 to 6.31354e-007
Heightened Def Con from 6.31354e-007 to 6.31356e-007
Heightened Def Con from 6.31357e-007 to 6.31357e-007
Heightened Def Con from 6.31357e-007 +to 6.31373e-007
Heightened Def Con from 6.31373e-007 to 6.31373e-007
Heightened Def Con from 6.31373e-007 to 6.31377e-007
Heightened Def Con from 6.31377e-007 to 6.31393e-007
Heightened Def Con from 6.31393e-007 to 6.31393e-007
Heightened Def Con from 6.31393e-007 ++to 6.31426e-007
Heightened Def Con from 6.3143e-007 to 6.31445e-007
Heightened Def Con from 6.31445e-007 +to 6.3145e-007
Heightened Def Con from 6.3145e-007 to 6.3145e-007
Heightened Def Con from 6.31451e-007 to 6.31454e-007
Heightened Def Con from 6.31457e-007 to 6.31488e-007
Heightened Def Con from 6.31488e-007 to 6.31613e-007
Heightened Def Con from 6.31613e-007 to 6.41613e-007
Heightened Def Con from 8.81852e-007 to 8.85852e-007
Heightened Def Con from 4.49647e-006 to 4.49847e-006
Heightened Def Con from 4.54141e-006 to 4.54341e-006
Heightened Def Con from 4.55304e-006 to 4.55516e-006
Heightened Def Con from 4.55541e-006 to 4.55554e-006
Heightened Def Con from 4.55554e-006 to 4.55581e-006
Heightened Def Con from 4.55581e-006 to 4.55693e-006
Heightened Def Con from 4.55693e-006 to 4.58093e-006
Heightened Def Con from 4.60666e-006 to 4.60966e-006
Heightened Def Con from 4.61635e-006 to 4.61935e-006
Heightened Def Con from 4.63575e-006 to 4.63875e-006
Heightened Def Con from 4.64081e-006 to 4.64193e-006
Heightened Def Con from 4.64193e-006 to 4.64243e-006
Heightened Def Con from 4.64244e-006 to 4.64247e-006
Heightened Def Con from 4.64247e-006 to 4.64247e-006
Heightened Def Con from 4.64247e-006 to 4.64247e-006
Heightened Def Con from 4.64247e-006 to 4.64247e-006
Heightened Def Con from 4.64247e-006 to 4.64247e-006
Heightened Def Con from 4.64247e-006 to 4.64247e-006
Heightened Def Con from 4.64247e-006 to 4.64248e-006
Heightened Def Con from 4.64248e-006 to 4.64248e-006
Heightened Def Con from 4.64248e-006 to 4.64248e-006
Heightened Def Con from 4.64248e-006 to 4.64248e-006
Heightened Def Con from 4.64248e-006 +to 4.64248e-006
Heightened Def Con from 4.64248e-006 to 4.64248e-006
Heightened Def Con from 4.64248e-006 to 4.64249e-006
Heightened Def Con from 4.6425e-006 to 4.6425e-006
Heightened Def Con from 4.6425e-006 to 4.64251e-006
Heightened Def Con from 4.64251e-006 to 4.64251e-006
Heightened Def Con from 4.64251e-006 to 4.64251e-006
Heightened Def Con from 4.64251e-006 to 4.64253e-006
Heightened Def Con from 4.64253e-006 to 4.64253e-006
Heightened Def Con from 4.64253e-006 to 4.64253e-006
Heightened Def Con from 4.64253e-006 to 4.64255e-006
Heightened Def Con from 4.64255e-006 to 4.64255e-006
Heightened Def Con from 4.64255e-006 to 4.64255e-006
Heightened Def Con from 4.64255e-006 to 4.64258e-006
Heightened Def Con from 4.64258e-006 to 4.64261e-006
Heightened Def Con from 4.64261e-006 to 4.64261e-006
Heightened Def Con from 4.64261e-006 to 4.64263e-006
Heightened Def Con from 4.64263e-006 to 4.64263e-006
Heightened Def Con from 4.64263e-006 to 4.64265e-006
Heightened Def Con from 4.64265e-006 to 4.64265e-006
Heightened Def Con from 4.64265e-006 to 4.64265e-006
Heightened Def Con from 4.64265e-006 to 4.64267e-006
Heightened Def Con from 4.64267e-006 +to 4.64267e-006
Heightened Def Con from 4.64267e-006 to 4.64267e-006
Heightened Def Con from 4.64267e-006 to 4.64268e-006
Heightened Def Con from 4.64268e-006 to 4.64268e-006
Heightened Def Con from 4.64268e-006 to 4.64268e-006
Heightened Def Con from 4.64268e-006 to 4.64271e-006
Heightened Def Con from 4.64271e-006 to 4.64273e-006
Heightened Def Con from 4.64273e-006 to 4.64273e-006
Heightened Def Con from 4.64273e-006 to 4.64276e-006
Heightened Def Con from 4.64276e-006 to 4.64278e-006
Heightened Def Con from 4.64278e-006 to 4.64281e-006
Heightened Def Con from 4.64281e-006 to 4.64281e-006
Heightened Def Con from 4.64281e-006 to 4.64281e-006
Heightened Def Con from 4.64281e-006 to 4.64281e-006
Heightened Def Con from 4.64281e-006 +to 4.64281e-006
Heightened Def Con from 4.64281e-006 to 4.64281e-006
Heightened Def Con from 4.64282e-006 to 4.64283e-006
Heightened Def Con from 4.64283e-006 to 4.64285e-006
Heightened Def Con from 4.64285e-006 to 4.64285e-006
Heightened Def Con from 4.64285e-006 to 4.64288e-006
Heightened Def Con from 4.64288e-006 to 4.6429e-006
Heightened Def Con from 4.6429e-006 +to 4.6429e-006
Heightened Def Con from 4.6429e-006 to 4.6429e-006
Heightened Def Con from 4.6429e-006 to 4.64295e-006
Heightened Def Con from 4.64295e-006 to 4.64297e-006
Heightened Def Con from 4.64297e-006 to 4.64297e-006
Heightened Def Con from 4.64297e-006 to 4.64297e-006
Heightened Def Con from 4.64297e-006 to 4.64297e-006
Heightened Def Con from 4.64297e-006 to 4.64299e-006
Heightened Def Con from 4.64299e-006 to 4.64303e-006
Heightened Def Con from 4.64304e-006 to 4.64304e-006
Heightened Def Con from 4.64304e-006 ++to 4.64305e-006
Heightened Def Con from 4.64305e-006 to 4.64305e-006
Heightened Def Con from 4.64305e-006 to 4.64307e-006
Heightened Def Con from 4.64307e-006 to 4.64307e-006
Heightened Def Con from 4.64307e-006 to 4.64307e-006
Heightened Def Con from 4.64307e-006 to 4.64307e-006
Heightened Def Con from 4.64307e-006 to 4.64307e-006
Heightened Def Con from 4.64307e-006 to 4.64307e-006
Heightened Def Con from 4.64307e-006 to 4.64307e-006
Heightened Def Con from 4.64307e-006 to 4.64308e-006
Heightened Def Con from 4.64308e-006 to 4.64308e-006
Heightened Def Con from 4.64308e-006 +to 4.64311e-006
Heightened Def Con from 4.64311e-006 to 4.64313e-006
Heightened Def Con from 4.64313e-006 to 4.64313e-006
Heightened Def Con from 4.64313e-006 to 4.64315e-006
Heightened Def Con from 4.64315e-006 to 4.64316e-006
Heightened Def Con from 4.64316e-006 to 4.64316e-006
Heightened Def Con from 4.64316e-006 to 4.64316e-006
Heightened Def Con from 4.64316e-006 to 4.64317e-006
Heightened Def Con from 4.64317e-006 to 4.64317e-006
Heightened Def Con from 4.64317e-006 to 4.64317e-006
Heightened Def Con from 4.64317e-006 to 4.64321e-006
Heightened Def Con from 4.64321e-006 to 4.64321e-006
Heightened Def Con from 4.64321e-006 to 4.64322e-006
Heightened Def Con from 4.64322e-006 to 4.64323e-006
Heightened Def Con from 4.64323e-006 to 4.64325e-006
Heightened Def Con from 4.64325e-006 +to 4.64325e-006
Heightened Def Con from 4.64325e-006 to 4.64326e-006
Heightened Def Con from 4.64326e-006 to 4.64326e-006
Heightened Def Con from 4.64326e-006 to 4.64326e-006
Heightened Def Con from 4.64326e-006 to 4.64327e-006
Heightened Def Con from 4.64327e-006 to 4.64328e-006
Heightened Def Con from 4.64328e-006 to 4.64329e-006
Heightened Def Con from 4.64329e-006 to 4.6433e-006
Heightened Def Con from 4.6433e-006 +to 4.6433e-006
Heightened Def Con from 4.6433e-006 to 4.6433e-006
Heightened Def Con from 4.6433e-006 to 4.6433e-006
Heightened Def Con from 4.6433e-006 to 4.64331e-006
Heightened Def Con from 4.64331e-006 to 4.64331e-006
Heightened Def Con from 4.64331e-006 +to 4.64331e-006
Heightened Def Con from 4.64331e-006 to 4.64331e-006
Heightened Def Con from 4.64331e-006 to 4.64332e-006
Heightened Def Con from 4.64332e-006 to 4.64334e-006
Heightened Def Con from 4.64334e-006 +to 4.64334e-006
Heightened Def Con from 4.64334e-006 to 4.64336e-006
Heightened Def Con from 4.64336e-006 +to 4.64336e-006
Heightened Def Con from 4.64336e-006 to 4.64338e-006
Heightened Def Con from 4.64338e-006 to 4.64338e-006
Heightened Def Con from 4.64338e-006 ++to 4.64342e-006
Heightened Def Con from 4.64342e-006 to 4.64342e-006
Heightened Def Con from 4.64342e-006 to 4.64344e-006
Heightened Def Con from 4.64344e-006 to 4.64344e-006
Heightened Def Con from 4.64344e-006 to 4.64345e-006
Heightened Def Con from 4.64345e-006 +to 4.64345e-006
Heightened Def Con from 4.64345e-006 to 4.64345e-006
Heightened Def Con from 4.64345e-006 to 4.64345e-006
Heightened Def Con from 4.64345e-006 to 4.64345e-006
Heightened Def Con from 4.64345e-006 to 4.64345e-006
Heightened Def Con from 4.64345e-006 to 4.64346e-006
Heightened Def Con from 4.64349e-006 to 4.6435e-006
Heightened Def Con from 4.6435e-006 +to 4.64352e-006
Heightened Def Con from 4.64352e-006 +to 4.64352e-006
Heightened Def Con from 4.64352e-006 +to 4.64352e-006
Heightened Def Con from 4.64352e-006 to 4.64352e-006
Heightened Def Con from 4.64352e-006 to 4.64353e-006
Heightened Def Con from 4.64353e-006 to 4.64357e-006
Heightened Def Con from 4.64359e-006 to 4.6436e-006
Heightened Def Con from 4.6436e-006 to 4.64363e-006
Heightened Def Con from 4.64363e-006 to 4.64363e-006
Heightened Def Con from 4.64363e-006 to 4.64363e-006
Heightened Def Con from 4.64363e-006 to 4.64363e-006
Heightened Def Con from 4.64365e-006 to 4.64365e-006
Heightened Def Con from 4.64365e-006 to 4.64365e-006
Heightened Def Con from 4.64365e-006 to 4.64367e-006
Heightened Def Con from 4.64367e-006 to 4.64367e-006
Heightened Def Con from 4.64367e-006 to 4.64379e-006
Heightened Def Con from 4.64379e-006 to 4.65479e-006
Heightened Def Con from 4.65479e-006 to 4.65779e-006
Heightened Def Con from 4.6578e-006 to 4.6608e-006
Heightened Def Con from 4.66089e-006 to 4.66389e-006
Heightened Def Con from 4.66389e-006 to 4.66689e-006
Heightened Def Con from 4.66689e-006 to 4.66989e-006
Heightened Def Con from 4.6699e-006 to 4.6729e-006
Heightened Def Con from 4.6729e-006 to 4.6779e-006
Heightened Def Con from 4.69524e-006 to 4.69824e-006
Heightened Def Con from 4.70975e-006 to 4.71275e-006
Heightened Def Con from 4.71476e-006 to 4.71476e-006
Heightened Def Con from 4.71476e-006 to 4.71476e-006
Heightened Def Con from 4.71476e-006 to 4.71476e-006
Heightened Def Con from 4.71476e-006 to 4.71476e-006
Heightened Def Con from 4.71477e-006 to 4.71477e-006
Heightened Def Con from 4.71477e-006 to 4.71477e-006
Heightened Def Con from 4.71477e-006 to 4.71478e-006
Heightened Def Con from 4.71478e-006 to 4.71478e-006
Heightened Def Con from 4.71478e-006 to 4.71478e-006
Heightened Def Con from 4.71478e-006 to 4.71479e-006
Heightened Def Con from 4.71479e-006 to 4.71479e-006
Heightened Def Con from 4.71479e-006 to 4.71479e-006
Heightened Def Con from 4.71479e-006 to 4.71479e-006
Heightened Def Con from 4.71479e-006 to 4.71479e-006
Heightened Def Con from 4.71479e-006 to 4.7148e-006
Heightened Def Con from 4.7148e-006 to 4.7148e-006
Heightened Def Con from 4.71481e-006 to 4.71481e-006
Heightened Def Con from 4.71481e-006 to 4.71481e-006
Heightened Def Con from 4.71481e-006 to 4.71481e-006
Heightened Def Con from 4.71481e-006 to 4.71481e-006
Heightened Def Con from 4.71481e-006 to 4.71481e-006
Heightened Def Con from 4.71482e-006 to 4.71482e-006
Heightened Def Con from 4.71482e-006 to 4.71483e-006
Heightened Def Con from 4.71483e-006 to 4.71483e-006
Heightened Def Con from 4.71483e-006 to 4.71483e-006
Heightened Def Con from 4.71483e-006 to 4.71483e-006
Heightened Def Con from 4.71483e-006 to 4.71483e-006
Heightened Def Con from 4.71483e-006 to 4.71484e-006
Heightened Def Con from 4.71486e-006 to 4.71486e-006
Heightened Def Con from 4.71487e-006 to 4.71487e-006
Heightened Def Con from 4.71487e-006 to 4.71487e-006
Heightened Def Con from 4.71487e-006 to 4.71487e-006
Heightened Def Con from 4.71487e-006 to 4.71487e-006
Heightened Def Con from 4.71488e-006 to 4.71488e-006
Heightened Def Con from 4.71488e-006 to 4.71489e-006
Heightened Def Con from 4.71489e-006 to 4.71489e-006
Heightened Def Con from 4.71489e-006 to 4.71489e-006
Heightened Def Con from 4.71489e-006 to 4.71489e-006
Heightened Def Con from 4.71489e-006 to 4.71489e-006
Heightened Def Con from 4.71489e-006 to 4.71489e-006
Heightened Def Con from 4.71489e-006 to 4.71489e-006
Heightened Def Con from 4.71489e-006 to 4.71489e-006
Heightened Def Con from 4.7149e-006 to 4.7149e-006
Heightened Def Con from 4.7149e-006 to 4.7149e-006
Heightened Def Con from 4.7149e-006 to 4.7149e-006
Heightened Def Con from 4.7149e-006 to 4.7149e-006
Heightened Def Con from 4.71491e-006 to 4.71578e-006
Heightened Def Con from 4.99058e-006 to 4.99358e-006
Heightened Def Con from 4.99566e-006 to 4.99866e-006
Heightened Def Con from 4.99891e-006 to 4.99991e-006
Heightened Def Con from 4.99996e-006 to 4.99997e-006
Heightened Def Con from 4.99997e-006 to 4.99997e-006
Heightened Def Con from 4.99997e-006 to 4.99997e-006
Heightened Def Con from 4.99997e-006 to 5e-006
Heightened Def Con from 5.00002e-006 to 5.00202e-006
Heightened Def Con from 5.44394e-006 to 5.44594e-006
Heightened Def Con from 5.46471e-006 to 5.46474e-006
Heightened Def Con from 5.46481e-006 to 5.46481e-006
Heightened Def Con from 5.46482e-006 to 5.46482e-006
Heightened Def Con from 5.46483e-006 to 5.46483e-006
Heightened Def Con from 5.46483e-006 to 5.46484e-006
Heightened Def Con from 5.46486e-006 to 5.47086e-006
Heightened Def Con from 5.47104e-006 to 5.47204e-006
Heightened Def Con from 5.47212e-006 to 5.47215e-006
Heightened Def Con from 5.47215e-006 to 5.47217e-006
Heightened Def Con from 5.47218e-006 to 5.47218e-006
Heightened Def Con from 5.47221e-006 to 5.47222e-006
Heightened Def Con from 5.47224e-006 to 5.47224e-006
Heightened Def Con from 5.47224e-006 to 5.47227e-006
Heightened Def Con from 5.47227e-006 to 5.47228e-006
Heightened Def Con from 5.47228e-006 to 5.47229e-006
Heightened Def Con from 5.47231e-006 to 5.47231e-006
Heightened Def Con from 5.47231e-006 to 5.47244e-006
Heightened Def Con from 5.47244e-006 to 5.47246e-006
Heightened Def Con from 5.47249e-006 to 5.4725e-006
Heightened Def Con from 5.4725e-006 to 5.47451e-006
Heightened Def Con from 5.47455e-006 to 5.47855e-006
Heightened Def Con from 5.47864e-006 to 5.49764e-006
Heightened Def Con from 5.49764e-006 to 5.50064e-006
Heightened Def Con from 5.52009e-006 to 5.52609e-006
Heightened Def Con from 5.5286e-006 to 5.52861e-006
Heightened Def Con from 5.52871e-006 to 5.53171e-006
Heightened Def Con from 5.54135e-006 to 5.54435e-006
Heightened Def Con from 5.54637e-006 to 5.55137e-006
Heightened Def Con from 5.5534e-006 to 5.5554e-006
Heightened Def Con from 5.5554e-006 to 5.5554e-006
Heightened Def Con from 5.5554e-006 to 5.5554e-006
Heightened Def Con from 5.5554e-006 to 5.5554e-006
Heightened Def Con from 5.5554e-006 to 5.5554e-006
Heightened Def Con from 5.5554e-006 to 5.5554e-006
Heightened Def Con from 5.5554e-006 to 5.5554e-006
Heightened Def Con from 5.5554e-006 to 5.5554e-006
Heightened Def Con from 5.5554e-006 to 5.5554e-006
Heightened Def Con from 5.5554e-006 to 5.5554e-006
Heightened Def Con from 5.5554e-006 to 5.5554e-006
Heightened Def Con from 5.5554e-006 to 5.5554e-006
Heightened Def Con from 5.5554e-006 to 5.5554e-006
Heightened Def Con from 5.5554e-006 to 5.5554e-006
Heightened Def Con from 5.5554e-006 +to 5.5554e-006
Heightened Def Con from 5.5554e-006 to 5.5554e-006
Heightened Def Con from 5.5554e-006 to 5.5554e-006
Heightened Def Con from 5.5554e-006 to 5.5554e-006
Heightened Def Con from 5.5554e-006 to 5.5554e-006
Heightened Def Con from 5.5554e-006 to 5.5554e-006
Heightened Def Con from 5.5554e-006 to 5.5554e-006
Heightened Def Con from 5.5554e-006 to 5.5554e-006
Heightened Def Con from 5.5554e-006 to 5.5554e-006
Heightened Def Con from 5.5554e-006 to 5.5554e-006
Heightened Def Con from 5.5554e-006 +to 5.5554e-006
Heightened Def Con from 5.5554e-006 to 5.5554e-006
Heightened Def Con from 5.5554e-006 +to 5.55541e-006
Heightened Def Con from 5.55541e-006 to 5.55541e-006
Heightened Def Con from 5.55541e-006 to 5.55541e-006
Heightened Def Con from 5.55541e-006 to 5.55541e-006
Heightened Def Con from 5.55541e-006 to 5.55541e-006
Heightened Def Con from 5.55541e-006 to 5.55541e-006
Heightened Def Con from 5.55541e-006 to 5.55541e-006
Heightened Def Con from 5.55541e-006 to 5.55541e-006
Heightened Def Con from 5.55541e-006 to 5.55541e-006
Heightened Def Con from 5.55541e-006 to 5.55541e-006
Heightened Def Con from 5.55541e-006 +to 5.55541e-006
Heightened Def Con from 5.55541e-006 to 5.55541e-006
Heightened Def Con from 5.55541e-006 to 5.55541e-006
Heightened Def Con from 5.55541e-006 to 5.55541e-006
Heightened Def Con from 5.55541e-006 to 5.55541e-006
Heightened Def Con from 5.55541e-006 to 5.55541e-006
Heightened Def Con from 5.55541e-006 to 5.55541e-006
Heightened Def Con from 5.55541e-006 to 5.55541e-006
Heightened Def Con from 5.55541e-006 to 5.55541e-006
Heightened Def Con from 5.55541e-006 to 5.55541e-006
Heightened Def Con from 5.55541e-006 to 5.55541e-006
Heightened Def Con from 5.55541e-006 to 5.55541e-006
Heightened Def Con from 5.55541e-006 +to 5.55541e-006
Heightened Def Con from 5.55541e-006 +to 5.55541e-006
Heightened Def Con from 5.55541e-006 to 5.55541e-006
Heightened Def Con from 5.55541e-006 to 5.55541e-006
Heightened Def Con from 5.55541e-006 to 5.55541e-006
Heightened Def Con from 5.55541e-006 to 5.55541e-006
Heightened Def Con from 5.55541e-006 to 5.55541e-006
Heightened Def Con from 5.55541e-006 to 5.55541e-006
Heightened Def Con from 5.55541e-006 to 5.55541e-006
Heightened Def Con from 5.55541e-006 to 5.55541e-006
Heightened Def Con from 5.55541e-006 to 5.55541e-006
Heightened Def Con from 5.55541e-006 to 5.55541e-006
Heightened Def Con from 5.55541e-006 to 5.55541e-006
Heightened Def Con from 5.55541e-006 to 5.55541e-006
Heightened Def Con from 5.55541e-006 to 5.55541e-006
Heightened Def Con from 5.55541e-006 to 5.55541e-006
Heightened Def Con from 5.55541e-006 to 5.55541e-006
Heightened Def Con from 5.55541e-006 to 5.55541e-006
Heightened Def Con from 5.55541e-006 to 5.55541e-006
Heightened Def Con from 5.55541e-006 to 5.55541e-006
Heightened Def Con from 5.55541e-006 to 5.55541e-006
Heightened Def Con from 5.55541e-006 to 5.55541e-006
Heightened Def Con from 5.55541e-006 to 5.55541e-006
Heightened Def Con from 5.55541e-006 to 5.55541e-006
Heightened Def Con from 5.55541e-006 to 5.55541e-006
Heightened Def Con from 5.55541e-006 to 5.55541e-006
Heightened Def Con from 5.55541e-006 to 5.55541e-006
Heightened Def Con from 5.55541e-006 to 5.55541e-006
Heightened Def Con from 5.55541e-006 to 5.55541e-006
Heightened Def Con from 5.55541e-006 to 5.55541e-006
Heightened Def Con from 5.55541e-006 to 5.55541e-006
Heightened Def Con from 5.55541e-006 to 5.55541e-006
Heightened Def Con from 5.55541e-006 to 5.55541e-006
Heightened Def Con from 5.55541e-006 to 5.55541e-006
Heightened Def Con from 5.55541e-006 to 5.55541e-006
Heightened Def Con from 5.55541e-006 to 5.55541e-006
Heightened Def Con from 5.55541e-006 to 5.55541e-006
Heightened Def Con from 5.55541e-006 to 5.55541e-006
Heightened Def Con from 5.55541e-006 to 5.55541e-006
Heightened Def Con from 5.55541e-006 to 5.55541e-006
Heightened Def Con from 5.55541e-006 to 5.55541e-006
Heightened Def Con from 5.55541e-006 to 5.55541e-006
Heightened Def Con from 5.55541e-006 to 5.55541e-006
Heightened Def Con from 5.55541e-006 to 5.55541e-006
Heightened Def Con from 5.55541e-006 to 5.55541e-006
Heightened Def Con from 5.55541e-006 to 5.55542e-006
Heightened Def Con from 5.55542e-006 to 5.55542e-006
Heightened Def Con from 5.55542e-006 to 5.55542e-006
Heightened Def Con from 5.55542e-006 to 5.55542e-006
Heightened Def Con from 5.55542e-006 to 5.55542e-006
Heightened Def Con from 5.55542e-006 to 5.55542e-006
Heightened Def Con from 5.55542e-006 to 5.55542e-006
Heightened Def Con from 5.55542e-006 to 5.55542e-006
Heightened Def Con from 5.55542e-006 to 5.55542e-006
Heightened Def Con from 5.55542e-006 to 5.55542e-006
Heightened Def Con from 5.55542e-006 to 5.55542e-006
Heightened Def Con from 5.55542e-006 to 5.55542e-006
Heightened Def Con from 5.55542e-006 to 5.55542e-006
Heightened Def Con from 5.55542e-006 to 5.55542e-006
Heightened Def Con from 5.55542e-006 +to 5.55542e-006
Heightened Def Con from 5.55542e-006 to 5.55542e-006
Heightened Def Con from 5.55542e-006 to 5.55542e-006
Heightened Def Con from 5.55542e-006 to 5.55542e-006
Heightened Def Con from 5.55542e-006 to 5.55542e-006
Heightened Def Con from 5.55542e-006 to 5.55542e-006
Heightened Def Con from 5.55542e-006 +to 5.55542e-006
Heightened Def Con from 5.55542e-006 to 5.55542e-006
Heightened Def Con from 5.55542e-006 to 5.55542e-006
Heightened Def Con from 5.55542e-006 to 5.55542e-006
Heightened Def Con from 5.55542e-006 to 5.55542e-006
Heightened Def Con from 5.55542e-006 to 5.55542e-006
Heightened Def Con from 5.55542e-006 to 5.55542e-006
Heightened Def Con from 5.55542e-006 to 5.55542e-006
Heightened Def Con from 5.55542e-006 to 5.55542e-006
Heightened Def Con from 5.55542e-006 to 5.55542e-006
Heightened Def Con from 5.55542e-006 to 5.55542e-006
Heightened Def Con from 5.55542e-006 to 5.55542e-006
Heightened Def Con from 5.55542e-006 to 5.55542e-006
Heightened Def Con from 5.55542e-006 to 5.55542e-006
Heightened Def Con from 5.55542e-006 +to 5.55542e-006
Heightened Def Con from 5.55542e-006 +to 5.55542e-006
Heightened Def Con from 5.55542e-006 to 5.55542e-006
Heightened Def Con from 5.55542e-006 to 5.55542e-006
Heightened Def Con from 5.55542e-006 to 5.55542e-006
Heightened Def Con from 5.55542e-006 +to 5.55542e-006
Heightened Def Con from 5.55542e-006 to 5.55542e-006
Heightened Def Con from 5.55542e-006 to 5.55543e-006
Heightened Def Con from 5.55543e-006 to 5.55543e-006
Heightened Def Con from 5.55543e-006 to 5.55543e-006
Heightened Def Con from 5.55543e-006 to 5.55543e-006
Heightened Def Con from 5.55543e-006 to 5.55543e-006
Heightened Def Con from 5.55543e-006 to 5.55543e-006
Heightened Def Con from 5.55543e-006 to 5.55543e-006
Heightened Def Con from 5.55543e-006 to 5.55543e-006
Heightened Def Con from 5.55543e-006 to 5.55543e-006
Heightened Def Con from 5.55543e-006 to 5.55543e-006
Heightened Def Con from 5.55543e-006 to 5.55543e-006
Heightened Def Con from 5.55543e-006 +to 5.55543e-006
Heightened Def Con from 5.55543e-006 to 5.55543e-006
Heightened Def Con from 5.55543e-006 to 5.55543e-006
Heightened Def Con from 5.55543e-006 to 5.55543e-006
Heightened Def Con from 5.55543e-006 to 5.55543e-006
Heightened Def Con from 5.55543e-006 to 5.55543e-006
Heightened Def Con from 5.55543e-006 to 5.55543e-006
Heightened Def Con from 5.55543e-006 to 5.55543e-006
Heightened Def Con from 5.55543e-006 to 5.55543e-006
Heightened Def Con from 5.55543e-006 to 5.55543e-006
Heightened Def Con from 5.55543e-006 to 5.55543e-006
Heightened Def Con from 5.55543e-006 to 5.55543e-006
Heightened Def Con from 5.55543e-006 to 5.55543e-006
Heightened Def Con from 5.55543e-006 to 5.55543e-006
Heightened Def Con from 5.55543e-006 to 5.55543e-006
Heightened Def Con from 5.55543e-006 to 5.55543e-006
Heightened Def Con from 5.55543e-006 to 5.55543e-006
Heightened Def Con from 5.55543e-006 +to 5.55543e-006
Heightened Def Con from 5.55543e-006 to 5.55543e-006
Heightened Def Con from 5.55543e-006 to 5.55543e-006
Heightened Def Con from 5.55543e-006 to 5.55543e-006
Heightened Def Con from 5.55543e-006 to 5.55543e-006
Heightened Def Con from 5.55543e-006 to 5.55543e-006
Heightened Def Con from 5.55543e-006 to 5.55543e-006
Heightened Def Con from 5.55543e-006 to 5.55543e-006
Heightened Def Con from 5.55543e-006 to 5.55543e-006
Heightened Def Con from 5.55543e-006 to 5.55543e-006
Heightened Def Con from 5.55543e-006 to 5.55543e-006
Heightened Def Con from 5.55543e-006 to 5.55543e-006
Heightened Def Con from 5.55543e-006 to 5.55543e-006
Heightened Def Con from 5.55543e-006 to 5.55543e-006
Heightened Def Con from 5.55543e-006 to 5.55543e-006
Heightened Def Con from 5.55543e-006 to 5.55543e-006
Heightened Def Con from 5.55543e-006 to 5.55543e-006
Heightened Def Con from 5.55543e-006 to 5.55543e-006
Heightened Def Con from 5.55543e-006 to 5.55543e-006
Heightened Def Con from 5.55543e-006 to 5.55543e-006
Heightened Def Con from 5.55543e-006 to 5.55543e-006
Heightened Def Con from 5.55543e-006 to 5.55543e-006
Heightened Def Con from 5.55543e-006 to 5.55543e-006
Heightened Def Con from 5.55543e-006 to 5.55543e-006
Heightened Def Con from 5.55543e-006 to 5.55543e-006
Heightened Def Con from 5.55543e-006 to 5.55543e-006
Heightened Def Con from 5.55543e-006 to 5.55543e-006
Heightened Def Con from 5.55543e-006 to 5.55543e-006
Heightened Def Con from 5.55543e-006 to 5.55543e-006
Heightened Def Con from 5.55543e-006 to 5.55543e-006
Heightened Def Con from 5.55543e-006 to 5.55543e-006
Heightened Def Con from 5.55543e-006 to 5.55543e-006
Heightened Def Con from 5.55543e-006 to 5.55543e-006
Heightened Def Con from 5.55543e-006 to 5.55544e-006
Heightened Def Con from 5.55544e-006 to 5.55544e-006
Heightened Def Con from 5.55544e-006 to 5.55544e-006
Heightened Def Con from 5.55544e-006 to 5.55544e-006
Heightened Def Con from 5.55544e-006 to 5.55544e-006
Heightened Def Con from 5.55544e-006 +to 5.55544e-006
Heightened Def Con from 5.55544e-006 to 5.55544e-006
Heightened Def Con from 5.55544e-006 to 5.55544e-006
Heightened Def Con from 5.55544e-006 to 5.55544e-006
Heightened Def Con from 5.55544e-006 to 5.55544e-006
Heightened Def Con from 5.55544e-006 to 5.55544e-006
Heightened Def Con from 5.55544e-006 +to 5.55544e-006
Heightened Def Con from 5.55544e-006 to 5.55544e-006
Heightened Def Con from 5.55544e-006 to 5.55544e-006
Heightened Def Con from 5.55544e-006 to 5.55544e-006
Heightened Def Con from 5.55544e-006 to 5.55544e-006
Heightened Def Con from 5.55544e-006 to 5.55544e-006
Heightened Def Con from 5.55544e-006 +to 5.55544e-006
Heightened Def Con from 5.55544e-006 to 5.55544e-006
Heightened Def Con from 5.55544e-006 to 5.55544e-006
Heightened Def Con from 5.55544e-006 to 5.55544e-006
Heightened Def Con from 5.55544e-006 to 5.55544e-006
Heightened Def Con from 5.55544e-006 to 5.55544e-006
Heightened Def Con from 5.55544e-006 to 5.55544e-006
Heightened Def Con from 5.55544e-006 to 5.55544e-006
Heightened Def Con from 5.55544e-006 to 5.55544e-006
Heightened Def Con from 5.55544e-006 to 5.55544e-006
Heightened Def Con from 5.55544e-006 to 5.55544e-006
Heightened Def Con from 5.55544e-006 +to 5.55544e-006
Heightened Def Con from 5.55544e-006 to 5.55544e-006
Heightened Def Con from 5.55544e-006 to 5.55544e-006
Heightened Def Con from 5.55544e-006 to 5.55544e-006
Heightened Def Con from 5.55544e-006 +to 5.55544e-006
Heightened Def Con from 5.55544e-006 to 5.55544e-006
Heightened Def Con from 5.55544e-006 to 5.55544e-006
Heightened Def Con from 5.55544e-006 to 5.55544e-006
Heightened Def Con from 5.55544e-006 to 5.55544e-006
Heightened Def Con from 5.55544e-006 to 5.55544e-006
Heightened Def Con from 5.55544e-006 to 5.55544e-006
Heightened Def Con from 5.55544e-006 to 5.55544e-006
Heightened Def Con from 5.55544e-006 to 5.55544e-006
Heightened Def Con from 5.55544e-006 to 5.55544e-006
Heightened Def Con from 5.55544e-006 to 5.55544e-006
Heightened Def Con from 5.55544e-006 to 5.55544e-006
Heightened Def Con from 5.55544e-006 to 5.55544e-006
Heightened Def Con from 5.55544e-006 to 5.55544e-006
Heightened Def Con from 5.55544e-006 to 5.55544e-006
Heightened Def Con from 5.55544e-006 to 5.55544e-006
Heightened Def Con from 5.55544e-006 to 5.55544e-006
Heightened Def Con from 5.55544e-006 to 5.55544e-006
Heightened Def Con from 5.55544e-006 to 5.55544e-006
Heightened Def Con from 5.55544e-006 to 5.55545e-006
Heightened Def Con from 5.55545e-006 to 5.55545e-006
Heightened Def Con from 5.55545e-006 to 5.55545e-006
Heightened Def Con from 5.55545e-006 to 5.55545e-006
Heightened Def Con from 5.55545e-006 to 5.55545e-006
Heightened Def Con from 5.55545e-006 to 5.55545e-006
Heightened Def Con from 5.55545e-006 to 5.55545e-006
Heightened Def Con from 5.55545e-006 to 5.55545e-006
Heightened Def Con from 5.55545e-006 to 5.55545e-006
Heightened Def Con from 5.55545e-006 to 5.55545e-006
Heightened Def Con from 5.55545e-006 to 5.55545e-006
Heightened Def Con from 5.55545e-006 to 5.55545e-006
Heightened Def Con from 5.55545e-006 to 5.55545e-006
Heightened Def Con from 5.55545e-006 to 5.55545e-006
Heightened Def Con from 5.55545e-006 to 5.55545e-006
Heightened Def Con from 5.55545e-006 to 5.55545e-006
Heightened Def Con from 5.55545e-006 to 5.55545e-006
Heightened Def Con from 5.55545e-006 to 5.55545e-006
Heightened Def Con from 5.55545e-006 to 5.55545e-006
Heightened Def Con from 5.55545e-006 to 5.55545e-006
Heightened Def Con from 5.55545e-006 to 5.55545e-006
Heightened Def Con from 5.55545e-006 to 5.55545e-006
Heightened Def Con from 5.55545e-006 to 5.55545e-006
Heightened Def Con from 5.55545e-006 to 5.55545e-006
Heightened Def Con from 5.55545e-006 to 5.55545e-006
Heightened Def Con from 5.55545e-006 to 5.55545e-006
Heightened Def Con from 5.55545e-006 to 5.55545e-006
Heightened Def Con from 5.55545e-006 +to 5.55545e-006
Heightened Def Con from 5.55545e-006 to 5.55545e-006
Heightened Def Con from 5.55545e-006 to 5.55545e-006
Heightened Def Con from 5.55545e-006 to 5.55545e-006
Heightened Def Con from 5.55545e-006 to 5.55545e-006
Heightened Def Con from 5.55545e-006 to 5.55545e-006
Heightened Def Con from 5.55545e-006 to 5.55545e-006
Heightened Def Con from 5.55545e-006 to 5.55545e-006
Heightened Def Con from 5.55545e-006 to 5.55545e-006
Heightened Def Con from 5.55545e-006 to 5.55545e-006
Heightened Def Con from 5.55545e-006 to 5.55545e-006
Heightened Def Con from 5.55545e-006 to 5.55545e-006
Heightened Def Con from 5.55545e-006 to 5.55545e-006
Heightened Def Con from 5.55545e-006 to 5.55545e-006
Heightened Def Con from 5.55545e-006 to 5.55546e-006
Heightened Def Con from 5.55546e-006 to 5.55546e-006
Heightened Def Con from 5.55546e-006 to 5.55546e-006
Heightened Def Con from 5.55546e-006 to 5.55546e-006
Heightened Def Con from 5.55546e-006 to 5.55546e-006
Heightened Def Con from 5.55546e-006 +to 5.55546e-006
Heightened Def Con from 5.55546e-006 to 5.55546e-006
Heightened Def Con from 5.55546e-006 to 5.55546e-006
Heightened Def Con from 5.55546e-006 to 5.55546e-006
Heightened Def Con from 5.55546e-006 to 5.55546e-006
Heightened Def Con from 5.55546e-006 to 5.55546e-006
Heightened Def Con from 5.55546e-006 to 5.55546e-006
Heightened Def Con from 5.55546e-006 to 5.55546e-006
Heightened Def Con from 5.55546e-006 to 5.55546e-006
Heightened Def Con from 5.55546e-006 to 5.55546e-006
Heightened Def Con from 5.55546e-006 to 5.55546e-006
Heightened Def Con from 5.55546e-006 +to 5.55546e-006
Heightened Def Con from 5.55546e-006 to 5.55546e-006
Heightened Def Con from 5.55546e-006 to 5.55546e-006
Heightened Def Con from 5.55546e-006 to 5.55546e-006
Heightened Def Con from 5.55546e-006 to 5.55546e-006
Heightened Def Con from 5.55546e-006 to 5.55546e-006
Heightened Def Con from 5.55546e-006 to 5.55546e-006
Heightened Def Con from 5.55546e-006 to 5.55546e-006
Heightened Def Con from 5.55546e-006 to 5.55546e-006
Heightened Def Con from 5.55546e-006 to 5.55546e-006
Heightened Def Con from 5.55546e-006 to 5.55546e-006
Heightened Def Con from 5.55546e-006 to 5.55546e-006
Heightened Def Con from 5.55546e-006 to 5.55546e-006
Heightened Def Con from 5.55546e-006 to 5.55546e-006
Heightened Def Con from 5.55546e-006 to 5.55546e-006
Heightened Def Con from 5.55546e-006 to 5.55546e-006
Heightened Def Con from 5.55546e-006 to 5.55546e-006
Heightened Def Con from 5.55546e-006 to 5.55546e-006
Heightened Def Con from 5.55546e-006 to 5.55546e-006
Heightened Def Con from 5.55546e-006 to 5.55546e-006
Heightened Def Con from 5.55546e-006 to 5.55546e-006
Heightened Def Con from 5.55546e-006 to 5.55546e-006
Heightened Def Con from 5.55546e-006 to 5.55546e-006
Heightened Def Con from 5.55546e-006 to 5.55546e-006
Heightened Def Con from 5.55546e-006 to 5.55546e-006
Heightened Def Con from 5.55546e-006 to 5.55546e-006
Heightened Def Con from 5.55546e-006 to 5.55546e-006
Heightened Def Con from 5.55546e-006 to 5.55546e-006
Heightened Def Con from 5.55546e-006 to 5.55546e-006
Heightened Def Con from 5.55546e-006 to 5.55546e-006
Heightened Def Con from 5.55546e-006 to 5.55546e-006
Heightened Def Con from 5.55546e-006 to 5.55546e-006
Heightened Def Con from 5.55546e-006 to 5.55546e-006
Heightened Def Con from 5.55546e-006 to 5.55546e-006
Heightened Def Con from 5.55546e-006 to 5.55546e-006
Heightened Def Con from 5.55546e-006 to 5.55546e-006
Heightened Def Con from 5.55546e-006 to 5.55546e-006
Heightened Def Con from 5.55546e-006 to 5.55546e-006
Heightened Def Con from 5.55546e-006 to 5.55546e-006
Heightened Def Con from 5.55546e-006 to 5.55546e-006
Heightened Def Con from 5.55546e-006 to 5.55546e-006
Heightened Def Con from 5.55546e-006 to 5.55546e-006
Heightened Def Con from 5.55546e-006 to 5.55546e-006
Heightened Def Con from 5.55546e-006 to 5.55546e-006
Heightened Def Con from 5.55546e-006 to 5.55546e-006
Heightened Def Con from 5.55546e-006 to 5.55546e-006
Heightened Def Con from 5.55546e-006 to 5.55546e-006
Heightened Def Con from 5.55546e-006 to 5.55546e-006
Heightened Def Con from 5.55546e-006 to 5.55546e-006
Heightened Def Con from 5.55546e-006 to 5.55546e-006
Heightened Def Con from 5.55546e-006 to 5.55546e-006
Heightened Def Con from 5.55546e-006 to 5.55546e-006
Heightened Def Con from 5.55546e-006 to 5.55546e-006
Heightened Def Con from 5.55546e-006 to 5.55546e-006
Heightened Def Con from 5.55546e-006 to 5.55546e-006
Heightened Def Con from 5.55546e-006 to 5.55546e-006
Heightened Def Con from 5.55546e-006 to 5.55546e-006
Heightened Def Con from 5.55546e-006 to 5.55546e-006
Heightened Def Con from 5.55546e-006 to 5.55546e-006
Heightened Def Con from 5.55546e-006 to 5.55546e-006
Heightened Def Con from 5.55546e-006 to 5.55546e-006
Heightened Def Con from 5.55546e-006 to 5.55546e-006
Heightened Def Con from 5.55546e-006 to 5.55546e-006
Heightened Def Con from 5.55546e-006 to 5.55546e-006
Heightened Def Con from 5.55546e-006 +to 5.55546e-006
Heightened Def Con from 5.55546e-006 to 5.55546e-006
Heightened Def Con from 5.55546e-006 to 5.55546e-006
Heightened Def Con from 5.55546e-006 to 5.55546e-006
Heightened Def Con from 5.55546e-006 to 5.55546e-006
Heightened Def Con from 5.55546e-006 to 5.55546e-006
Heightened Def Con from 5.55546e-006 to 5.55546e-006
Heightened Def Con from 5.55546e-006 to 5.55546e-006
Heightened Def Con from 5.55546e-006 to 5.55546e-006
Heightened Def Con from 5.55546e-006 to 5.55546e-006
Heightened Def Con from 5.55546e-006 to 5.55546e-006
Heightened Def Con from 5.55546e-006 to 5.55546e-006
Heightened Def Con from 5.55546e-006 to 5.55546e-006
Heightened Def Con from 5.55546e-006 to 5.55547e-006
Heightened Def Con from 5.55547e-006 to 5.55547e-006
Heightened Def Con from 5.55547e-006 to 5.55547e-006
Heightened Def Con from 5.55547e-006 to 5.55547e-006
Heightened Def Con from 5.55547e-006 to 5.55547e-006
Heightened Def Con from 5.55547e-006 to 5.55547e-006
Heightened Def Con from 5.55547e-006 to 5.55547e-006
Heightened Def Con from 5.55547e-006 to 5.55547e-006
Heightened Def Con from 5.55547e-006 to 5.55547e-006
Heightened Def Con from 5.55547e-006 to 5.55547e-006
Heightened Def Con from 5.55547e-006 +to 5.55547e-006
Heightened Def Con from 5.55547e-006 to 5.55547e-006
Heightened Def Con from 5.55547e-006 to 5.55547e-006
Heightened Def Con from 5.55547e-006 to 5.55547e-006
Heightened Def Con from 5.55547e-006 to 5.55547e-006
Heightened Def Con from 5.55547e-006 to 5.55547e-006
Heightened Def Con from 5.55547e-006 to 5.55547e-006
Heightened Def Con from 5.55547e-006 to 5.55547e-006
Heightened Def Con from 5.55547e-006 to 5.55547e-006
Heightened Def Con from 5.55547e-006 to 5.55547e-006
Heightened Def Con from 5.55547e-006 to 5.55547e-006
Heightened Def Con from 5.55547e-006 to 5.55547e-006
Heightened Def Con from 5.55547e-006 to 5.55547e-006
Heightened Def Con from 5.55547e-006 to 5.55547e-006
Heightened Def Con from 5.55547e-006 to 5.55547e-006
Heightened Def Con from 5.55547e-006 to 5.55547e-006
Heightened Def Con from 5.55547e-006 to 5.55547e-006
Heightened Def Con from 5.55547e-006 to 5.55547e-006
Heightened Def Con from 5.55547e-006 to 5.55547e-006
Heightened Def Con from 5.55547e-006 to 5.55547e-006
Heightened Def Con from 5.55547e-006 to 5.55547e-006
Heightened Def Con from 5.55547e-006 to 5.55547e-006
Heightened Def Con from 5.55547e-006 to 5.55547e-006
Heightened Def Con from 5.55547e-006 to 5.55547e-006
Heightened Def Con from 5.55547e-006 to 5.55547e-006
Heightened Def Con from 5.55547e-006 to 5.55547e-006
Heightened Def Con from 5.55547e-006 +to 5.55547e-006
Heightened Def Con from 5.55547e-006 +to 5.55547e-006
Heightened Def Con from 5.55547e-006 +to 5.55547e-006
Heightened Def Con from 5.55547e-006 to 5.55547e-006
Heightened Def Con from 5.55547e-006 to 5.55547e-006
Heightened Def Con from 5.55547e-006 to 5.55547e-006
Heightened Def Con from 5.55547e-006 to 5.55547e-006
Heightened Def Con from 5.55547e-006 to 5.55547e-006
Heightened Def Con from 5.55547e-006 to 5.55547e-006
Heightened Def Con from 5.55547e-006 to 5.55547e-006
Heightened Def Con from 5.55547e-006 to 5.55548e-006
Heightened Def Con from 5.55548e-006 to 5.55548e-006
Heightened Def Con from 5.55548e-006 to 5.55548e-006
Heightened Def Con from 5.55548e-006 to 5.55548e-006
Heightened Def Con from 5.55548e-006 +to 5.55548e-006
Heightened Def Con from 5.55548e-006 +to 5.55548e-006
Heightened Def Con from 5.55548e-006 to 5.55548e-006
Heightened Def Con from 5.55548e-006 to 5.55548e-006
Heightened Def Con from 5.55548e-006 to 5.55548e-006
Heightened Def Con from 5.55548e-006 to 5.55548e-006
Heightened Def Con from 5.55548e-006 to 5.55548e-006
Heightened Def Con from 5.55548e-006 to 5.55548e-006
Heightened Def Con from 5.55548e-006 to 5.55548e-006
Heightened Def Con from 5.55548e-006 to 5.55548e-006
Heightened Def Con from 5.55548e-006 to 5.55548e-006
Heightened Def Con from 5.55548e-006 to 5.55548e-006
Heightened Def Con from 5.55548e-006 to 5.55548e-006
Heightened Def Con from 5.55548e-006 to 5.55548e-006
Heightened Def Con from 5.55548e-006 to 5.55548e-006
Heightened Def Con from 5.55548e-006 to 5.55548e-006
Heightened Def Con from 5.55548e-006 to 5.55548e-006
Heightened Def Con from 5.55548e-006 to 5.55548e-006
Heightened Def Con from 5.55548e-006 to 5.55548e-006
Heightened Def Con from 5.55548e-006 to 5.55548e-006
Heightened Def Con from 5.55548e-006 to 5.55548e-006
Heightened Def Con from 5.55548e-006 to 5.55548e-006
Heightened Def Con from 5.55548e-006 to 5.55549e-006
Heightened Def Con from 5.55549e-006 +to 5.55549e-006
Heightened Def Con from 5.55549e-006 to 5.55549e-006
Heightened Def Con from 5.55549e-006 to 5.55549e-006
Heightened Def Con from 5.55549e-006 to 5.55549e-006
Heightened Def Con from 5.55549e-006 to 5.55549e-006
Heightened Def Con from 5.55549e-006 to 5.55549e-006
Heightened Def Con from 5.55549e-006 to 5.55549e-006
Heightened Def Con from 5.55549e-006 to 5.55549e-006
Heightened Def Con from 5.55549e-006 to 5.55549e-006
Heightened Def Con from 5.55549e-006 to 5.55549e-006
Heightened Def Con from 5.55549e-006 to 5.55549e-006
Heightened Def Con from 5.55549e-006 to 5.55549e-006
Heightened Def Con from 5.55549e-006 +to 5.55549e-006
Heightened Def Con from 5.55549e-006 to 5.55549e-006
Heightened Def Con from 5.55549e-006 to 5.55549e-006
Heightened Def Con from 5.55549e-006 to 5.55549e-006
Heightened Def Con from 5.55549e-006 to 5.55549e-006
Heightened Def Con from 5.55549e-006 to 5.55549e-006
Heightened Def Con from 5.55549e-006 to 5.55549e-006
Heightened Def Con from 5.55549e-006 to 5.55549e-006
Heightened Def Con from 5.55549e-006 to 5.55549e-006
Heightened Def Con from 5.55549e-006 to 5.55549e-006
Heightened Def Con from 5.55549e-006 to 5.55549e-006
Heightened Def Con from 5.55549e-006 to 5.55549e-006
Heightened Def Con from 5.55549e-006 to 5.55549e-006
Heightened Def Con from 5.55549e-006 to 5.55549e-006
Heightened Def Con from 5.55549e-006 to 5.55549e-006
Heightened Def Con from 5.55549e-006 to 5.55549e-006
Heightened Def Con from 5.55549e-006 to 5.55549e-006
Heightened Def Con from 5.55549e-006 to 5.55549e-006
Heightened Def Con from 5.55549e-006 to 5.55549e-006
Heightened Def Con from 5.55549e-006 to 5.55549e-006
Heightened Def Con from 5.55549e-006 to 5.55549e-006
Heightened Def Con from 5.55549e-006 to 5.55549e-006
Heightened Def Con from 5.55549e-006 to 5.55549e-006
Heightened Def Con from 5.55549e-006 to 5.55549e-006
Heightened Def Con from 5.55549e-006 to 5.55549e-006

Date: Wed Jul 19 20:24:44 2023
Total elapsed time: 7.281 seconds.

tnom = 27
temp = 27
method = modified trap
totiter = 301135
traniter = 276664
tranpoints = 30283
accept = 11015
rejected = 20851
matrix size = 300
fillins = 204
solver = Normal
Thread vector: 18.4/8.3[9] 4.1/3.2[5] 11.3/3.3[9] 0.5/1.3[1]  2592/500
Matrix Compiler1: 16.91 KB object code size  3.8/1.2/[0.9]
Matrix Compiler2: 24.07 KB object code size  1.7/2.7/[1.1]

