Circuit: * D:\Uli\FIUBA\Materias\Diseño de Circuitos\TP\Circuit-Design\BUCK\BUCK_v7.asc

WARNING: Less than two connections to node NC_01.  This node is used by V4.
WARNING: Less than two connections to node NC_02.  This node is used by V5.
Instance "m:u8:_gd_template:_lo_stage:_lo_nmos": Length shorter than recommended for a level 1 MOSFET.
Instance "m:u8:_gd_template:_lo_stage:_lo_pmos": Length shorter than recommended for a level 1 MOSFET.
Instance "m:u8:_gd_template:_ho_stage:_ho_nmos": Length shorter than recommended for a level 1 MOSFET.
Instance "m:u8:_gd_template:_ho_stage:_ho_pmos": Length shorter than recommended for a level 1 MOSFET.
Direct Newton iteration failed to find .op point.  (Use ".option noopiter" to skip.)
Starting Gmin stepping
Gmin = 10
Gmin = 1.07374
Gmin = 0.115292
Gmin = 0.0123794
Gmin = 0.00132923
vernier = 0.5
vernier = 0.25
vernier = 0.125
vernier = 0.0625
Gmin = 0.00100083
vernier = 0.03125
vernier = 0.015625
vernier = 0.0078125
vernier = 0.00390625
vernier = 0.00195313
Gmin = 0.00100083
vernier = 0.000976563
vernier = 0.000488281
Gmin = 0
Gmin stepping failed

Starting source stepping with srcstepmethod=0
Source Step = 3.0303%
Source Step = 33.3333%
Source Step = 50.1894%
vernier = 0.015625
Source Step = 50.0237%
Source Step = 50.0533%
Source Step = 50.0829%
Source Step = 50.1125%
Source Step = 50.142%
vernier = 0.00146484
Source Step = 50.1746%
Source Step = 50.219%
Source Step = 50.2634%
Source Step = 50.3078%
Source Step = 50.3522%
vernier = 0.00219727
Source Step = 50.3988%
Source Step = 50.4653%
Source Step = 50.5319%
Source Step = 50.5985%
Source Step = 50.6651%
Source Step = 50.7317%
vernier = 0.0032959
Source Step = 50.8316%
Source Step = 50.9314%
Source Step = 51.0313%
Source Step = 51.1312%
Source Step = 51.2311%
vernier = 0.00494385
Source Step = 51.3759%
Source Step = 51.5257%
Source Step = 51.6755%
Source Step = 51.8253%
Source Step = 51.9751%
vernier = 0.00741577
Source Step = 52.1849%
Source Step = 52.4096%
Source Step = 52.6343%
Source Step = 52.859%
Source Step = 53.0838%
vernier = 0.0111237
Source Step = 53.3871%
Source Step = 53.7242%
Source Step = 54.0613%
Source Step = 54.3984%
Source Step = 54.7354%
vernier = 0.0166855
Source Step = 55.1737%
Source Step = 55.6793%
Source Step = 56.1849%
Source Step = 56.6905%
Source Step = 57.1961%
vernier = 0.0250282
Source Step = 57.8282%
Source Step = 58.5866%
Source Step = 59.345%
Source Step = 60.1035%
Source Step = 60.8619%
vernier = 0.0375423
Source Step = 61.772%
Source Step = 62.9097%
Source Step = 64.0473%
Source Step = 65.1849%
Source Step = 66.3226%
vernier = 0.0563135
Source Step = 67.6309%
Source Step = 69.3374%
Source Step = 71.0438%
Source Step = 72.7503%
Source Step = 74.4568%
vernier = 0.0844703
Source Step = 76.3339%
Source Step = 78.8936%
Source Step = 81.4533%
Source Step = 84.013%
Source Step = 86.5727%
vernier = 0.126705
Source Step = 89.2604%
Source Step = 93.1%
Source Step = 93.5199%
Source Step = 93.5799%
Source Step = 93.6399%
Source Step = 93.6999%
Source Step = 93.7599%
Source Step = 93.8199%
Source Step = 93.8799%
Source Step = 93.9399%
Source Step = 93.9998%
Source Step = 94.0598%
Source Step = 94.1198%
Source Step = 94.1798%
Source Step = 94.2398%
Source Step = 94.2998%
Source Step = 94.3598%
Source Step = 94.4198%
Source Step = 94.4798%
Source Step = 94.5398%
Source Step = 94.5998%
Source Step = 94.6598%
Source Step = 94.7198%
Source Step = 94.7798%
Source Step = 94.8398%
Source Step = 94.8997%
Source Step = 94.9597%
Source Step = 95.0197%
Source Step = 95.0797%
Source Step = 95.1397%
Source Step = 95.1997%
Source Step = 95.2597%
Source Step = 95.3197%
Source Step = 95.3797%
Source Step = 95.4397%
vernier = 0.00296966
Source Step = 95.5237%
Source Step = 95.6137%
Source Step = 95.7037%
Source Step = 95.7936%
Source Step = 95.8836%
vernier = 0.00445449
Source Step = 96.0051%
Source Step = 96.1401%
Source Step = 96.2751%
Source Step = 96.4101%
Source Step = 96.5451%
vernier = 0.00668173
Source Step = 96.7205%
Source Step = 96.923%
Source Step = 97.1255%
Source Step = 97.328%
Source Step = 97.5304%
vernier = 0.0100226
Source Step = 97.7835%
Source Step = 98.0873%
Source Step = 98.391%
Source Step = 98.6947%
Source Step = 98.9984%
vernier = 0.0150339
Source Step = 99.3629%
Source Step = 99.8184%
Source stepping succeeded in finding the operating point.

Ignoring empty pin current: Ix(u1:1)
Ignoring empty pin current: Ix(u1:2)
Ignoring empty pin current: Ix(u1:3)
Ignoring empty pin current: Ix(u1:4)
Ignoring empty pin current: Ix(u1:5)
Ignoring empty pin current: Ix(u1:1)
Ignoring empty pin current: Ix(u1:2)
Ignoring empty pin current: Ix(u1:3)
Ignoring empty pin current: Ix(u1:4)
Ignoring empty pin current: Ix(u1:5)
Changing Tseed to 1e-010
Heightened Def Con from 2.25098e-010 to 1.1e-009
Heightened Def Con from 1.12749e-009 to 3.12749e-009
Heightened Def Con from 4.66783e-007 to 4.69783e-007
Heightened Def Con from 4.69783e-007 to 4.70908e-007
Heightened Def Con from 4.72549e-007 to 4.72674e-007
Heightened Def Con from 4.72674e-007 to 4.97674e-007
Heightened Def Con from 4.97759e-007 to 5.00759e-007
Heightened Def Con from 5.49697e-007 to 5.52697e-007
Heightened Def Con from 5.52701e-007 to 5.52701e-007
Heightened Def Con from 5.52701e-007 to 5.52701e-007
Heightened Def Con from 5.52701e-007 to 5.52701e-007
Heightened Def Con from 5.52701e-007 +to 5.52702e-007
Heightened Def Con from 5.52702e-007 to 5.52704e-007
Heightened Def Con from 5.52708e-007 to 5.52708e-007
Heightened Def Con from 5.52709e-007 to 5.52709e-007
Heightened Def Con from 5.52709e-007 +to 5.52711e-007
Heightened Def Con from 5.52723e-007 to 5.52725e-007
Heightened Def Con from 5.52725e-007 to 5.52725e-007
Heightened Def Con from 5.52725e-007 to 5.52725e-007
Heightened Def Con from 5.52725e-007 to 5.52725e-007
Heightened Def Con from 5.52725e-007 to 5.52729e-007
Heightened Def Con from 5.52733e-007 to 5.52735e-007
Heightened Def Con from 5.52735e-007 to 5.52735e-007
Heightened Def Con from 5.52735e-007 to 5.52735e-007
Heightened Def Con from 5.52735e-007 to 5.52736e-007
Heightened Def Con from 5.52736e-007 to 5.52738e-007
Heightened Def Con from 5.52739e-007 to 5.52741e-007
Heightened Def Con from 5.52741e-007 to 5.52741e-007
Heightened Def Con from 5.52741e-007 to 5.52743e-007
Heightened Def Con from 5.52757e-007 to 5.52759e-007
Heightened Def Con from 5.52759e-007 to 5.52761e-007
Heightened Def Con from 5.52763e-007 to 5.52765e-007
Heightened Def Con from 5.52765e-007 to 5.52767e-007
Heightened Def Con from 5.52767e-007 to 5.52769e-007
Heightened Def Con from 5.52769e-007 to 5.52769e-007
Heightened Def Con from 5.52769e-007 to 5.52771e-007
Heightened Def Con from 5.52771e-007 ++to 5.52773e-007
Heightened Def Con from 5.52773e-007 to 5.52773e-007
Heightened Def Con from 5.52773e-007 to 5.52774e-007
Heightened Def Con from 5.52774e-007 to 5.52775e-007
Heightened Def Con from 5.52775e-007 to 5.52775e-007
Heightened Def Con from 5.52775e-007 to 5.52777e-007
Heightened Def Con from 5.52778e-007 to 5.5278e-007
Heightened Def Con from 5.5278e-007 to 5.52782e-007
Heightened Def Con from 5.52782e-007 to 5.52784e-007
Heightened Def Con from 5.52784e-007 to 5.52784e-007
Heightened Def Con from 5.52785e-007 to 5.52787e-007
Heightened Def Con from 5.52787e-007 to 5.52789e-007
Heightened Def Con from 5.52789e-007 to 5.52791e-007
Heightened Def Con from 5.52792e-007 to 5.52792e-007
Heightened Def Con from 5.52792e-007 to 5.52792e-007
Heightened Def Con from 5.52792e-007 to 5.52792e-007
Heightened Def Con from 5.52792e-007 to 5.52796e-007
Heightened Def Con from 5.52796e-007 to 5.52798e-007
Heightened Def Con from 5.52798e-007 to 5.52798e-007
Heightened Def Con from 5.52798e-007 to 5.52798e-007
Heightened Def Con from 5.52798e-007 to 5.528e-007
Heightened Def Con from 5.528e-007 to 5.528e-007
Heightened Def Con from 5.528e-007 to 5.52804e-007
Heightened Def Con from 5.52804e-007 to 5.52806e-007
Heightened Def Con from 5.52807e-007 to 5.52809e-007
Heightened Def Con from 5.52809e-007 to 5.52809e-007
Heightened Def Con from 5.52809e-007 to 5.52809e-007
Heightened Def Con from 5.52809e-007 to 5.52811e-007
Heightened Def Con from 5.52811e-007 to 5.52813e-007
Heightened Def Con from 5.52813e-007 +to 5.52813e-007
Heightened Def Con from 5.52813e-007 to 5.52815e-007
Heightened Def Con from 5.52815e-007 to 5.52819e-007
Heightened Def Con from 5.52819e-007 to 5.52819e-007
Heightened Def Con from 5.52819e-007 to 5.52821e-007
Heightened Def Con from 5.52821e-007 to 5.52821e-007
Heightened Def Con from 5.52821e-007 to 5.52821e-007
Heightened Def Con from 5.52822e-007 to 5.52822e-007
Heightened Def Con from 5.52822e-007 to 5.52822e-007
Heightened Def Con from 5.52824e-007 to 5.52824e-007
Heightened Def Con from 5.52824e-007 to 5.52826e-007
Heightened Def Con from 5.52838e-007 to 5.52842e-007
Heightened Def Con from 5.52842e-007 to 5.52844e-007
Heightened Def Con from 5.52844e-007 to 5.52844e-007
Heightened Def Con from 5.52844e-007 to 5.52844e-007
Heightened Def Con from 5.52844e-007 to 5.52844e-007
Heightened Def Con from 5.52844e-007 +to 5.52846e-007
Heightened Def Con from 5.52846e-007 to 5.52846e-007
Heightened Def Con from 5.52846e-007 to 5.52847e-007
Heightened Def Con from 5.52847e-007 to 5.52847e-007
Heightened Def Con from 5.52847e-007 to 5.52851e-007
Heightened Def Con from 5.52855e-007 to 5.52857e-007
Heightened Def Con from 5.52857e-007 to 5.52859e-007
Heightened Def Con from 5.52862e-007 to 5.52862e-007
Heightened Def Con from 5.52862e-007 to 5.52862e-007
Heightened Def Con from 5.52862e-007 to 5.52862e-007
Heightened Def Con from 5.52862e-007 to 5.52862e-007
Heightened Def Con from 5.52862e-007 to 5.52862e-007
Heightened Def Con from 5.52862e-007 to 5.52862e-007
Heightened Def Con from 5.52862e-007 to 5.52862e-007
Heightened Def Con from 5.52862e-007 to 5.52862e-007
Heightened Def Con from 5.52862e-007 to 5.52862e-007
Heightened Def Con from 5.52862e-007 to 5.52862e-007
Heightened Def Con from 5.52862e-007 +to 5.52863e-007
Heightened Def Con from 5.52863e-007 to 5.52863e-007
Heightened Def Con from 5.52863e-007 to 5.52867e-007
Heightened Def Con from 5.52867e-007 to 5.52869e-007
Heightened Def Con from 5.52869e-007 to 5.52869e-007
Heightened Def Con from 5.52869e-007 to 5.52869e-007
Heightened Def Con from 5.52869e-007 to 5.52869e-007
Heightened Def Con from 5.52869e-007 to 5.52869e-007
Heightened Def Con from 5.52869e-007 to 5.52869e-007
Heightened Def Con from 5.52869e-007 to 5.52873e-007
Heightened Def Con from 5.52885e-007 to 5.52885e-007
Heightened Def Con from 5.52885e-007 to 5.52885e-007
Heightened Def Con from 5.52885e-007 to 5.52885e-007
Heightened Def Con from 5.52885e-007 to 5.52885e-007
Heightened Def Con from 5.52885e-007 to 5.52885e-007
Heightened Def Con from 5.52885e-007 to 5.52885e-007
Heightened Def Con from 5.52885e-007 to 5.52885e-007
Heightened Def Con from 5.52885e-007 to 5.52885e-007
Heightened Def Con from 5.52885e-007 to 5.52887e-007
Heightened Def Con from 5.52887e-007 +to 5.52889e-007
Heightened Def Con from 5.52889e-007 to 5.52893e-007
Heightened Def Con from 5.52894e-007 to 5.52894e-007
Heightened Def Con from 5.52894e-007 to 5.52894e-007
Heightened Def Con from 5.52894e-007 to 5.52894e-007
Heightened Def Con from 5.52894e-007 to 5.52896e-007
Heightened Def Con from 5.52896e-007 to 5.52896e-007
Heightened Def Con from 5.52896e-007 to 5.52896e-007
Heightened Def Con from 5.52896e-007 to 5.52896e-007
Heightened Def Con from 5.52896e-007 to 5.52896e-007
Heightened Def Con from 5.52896e-007 to 5.52896e-007
Heightened Def Con from 5.52896e-007 +to 5.52896e-007
Heightened Def Con from 5.52896e-007 +to 5.52898e-007
Heightened Def Con from 5.52931e-007 to 5.52931e-007
Heightened Def Con from 5.52931e-007 to 5.52931e-007
Heightened Def Con from 5.52931e-007 to 5.52931e-007
Heightened Def Con from 5.52931e-007 to 5.52931e-007
Heightened Def Con from 5.52931e-007 to 5.52933e-007
Heightened Def Con from 5.52933e-007 to 5.52933e-007
Heightened Def Con from 5.52934e-007 to 5.52936e-007
Heightened Def Con from 5.52936e-007 to 5.52936e-007
Heightened Def Con from 5.52936e-007 +to 5.52936e-007
Heightened Def Con from 5.52936e-007 to 5.52936e-007
Heightened Def Con from 5.52936e-007 to 5.52936e-007
Heightened Def Con from 5.52936e-007 to 5.52936e-007
Heightened Def Con from 5.52937e-007 to 5.52939e-007
Heightened Def Con from 5.5306e-007 to 5.53064e-007
Heightened Def Con from 5.53064e-007 to 5.53066e-007
Heightened Def Con from 5.5307e-007 to 5.5307e-007
Heightened Def Con from 5.5307e-007 to 5.53071e-007
Heightened Def Con from 5.53071e-007 to 5.53073e-007
Heightened Def Con from 5.53073e-007 to 5.53075e-007
Heightened Def Con from 5.53075e-007 to 5.53077e-007
Heightened Def Con from 5.53077e-007 to 5.53077e-007
Heightened Def Con from 5.53077e-007 to 5.53079e-007
Heightened Def Con from 5.53083e-007 to 5.53083e-007
Heightened Def Con from 5.53083e-007 to 5.53083e-007
Heightened Def Con from 5.53084e-007 to 5.53084e-007
Heightened Def Con from 5.53084e-007 to 5.53086e-007
Heightened Def Con from 5.53086e-007 to 5.53088e-007
Heightened Def Con from 5.53094e-007 to 5.53096e-007
Heightened Def Con from 5.53096e-007 +to 5.53096e-007
Heightened Def Con from 5.53096e-007 ++to 5.53098e-007
Heightened Def Con from 5.53098e-007 +to 5.53098e-007
Heightened Def Con from 5.53098e-007 to 5.53098e-007
Heightened Def Con from 5.53098e-007 to 5.53098e-007
Heightened Def Con from 5.53098e-007 to 5.53098e-007
Heightened Def Con from 5.53098e-007 to 5.531e-007
Heightened Def Con from 5.531e-007 to 5.531e-007
Heightened Def Con from 5.531e-007 to 5.53102e-007
Heightened Def Con from 5.53102e-007 +to 5.53103e-007
Heightened Def Con from 5.53103e-007 to 5.53105e-007
Heightened Def Con from 5.53105e-007 to 5.53105e-007
Heightened Def Con from 5.53105e-007 to 5.53107e-007
Heightened Def Con from 5.53107e-007 to 5.53107e-007
Heightened Def Con from 5.53107e-007 to 5.53109e-007
Heightened Def Con from 5.53109e-007 to 5.53111e-007
Heightened Def Con from 5.53111e-007 to 5.53111e-007
Heightened Def Con from 5.53111e-007 to 5.53111e-007
Heightened Def Con from 5.53111e-007 to 5.53113e-007
Heightened Def Con from 5.53113e-007 to 5.53117e-007
Heightened Def Con from 5.53118e-007 to 5.5312e-007
Heightened Def Con from 5.5312e-007 to 5.53124e-007
Heightened Def Con from 5.53124e-007 +to 5.53126e-007
Heightened Def Con from 5.53126e-007 to 5.53126e-007
Heightened Def Con from 5.53126e-007 to 5.53127e-007
Heightened Def Con from 5.53127e-007 to 5.53127e-007
Heightened Def Con from 5.53127e-007 to 5.53127e-007
Heightened Def Con from 5.53127e-007 to 5.53127e-007
Heightened Def Con from 5.53127e-007 to 5.53129e-007
Heightened Def Con from 5.53129e-007 to 5.5313e-007
Heightened Def Con from 5.5313e-007 to 5.5313e-007
Heightened Def Con from 5.5313e-007 to 5.5313e-007
Heightened Def Con from 5.5313e-007 to 5.53131e-007
Heightened Def Con from 5.53131e-007 to 5.53131e-007
Heightened Def Con from 5.53133e-007 to 5.53135e-007
Heightened Def Con from 5.53135e-007 to 5.53135e-007
Heightened Def Con from 5.53135e-007 to 5.53137e-007
Heightened Def Con from 5.53137e-007 to 5.53137e-007
Heightened Def Con from 5.53137e-007 to 5.53137e-007
Heightened Def Con from 5.53137e-007 to 5.53139e-007
Heightened Def Con from 5.53139e-007 to 5.53141e-007
Heightened Def Con from 5.53141e-007 to 5.53142e-007
Heightened Def Con from 5.53143e-007 to 5.53143e-007
Heightened Def Con from 5.53144e-007 to 5.53144e-007
Heightened Def Con from 5.53144e-007 to 5.53144e-007
Heightened Def Con from 5.53145e-007 to 5.53147e-007
Heightened Def Con from 5.53147e-007 +to 5.53149e-007
Heightened Def Con from 5.53149e-007 to 5.53151e-007
Heightened Def Con from 5.53151e-007 to 5.53151e-007
Heightened Def Con from 5.53151e-007 to 5.53153e-007
Heightened Def Con from 5.53153e-007 to 5.53155e-007
Heightened Def Con from 5.53156e-007 to 5.53158e-007
Heightened Def Con from 5.53158e-007 to 5.53162e-007
Heightened Def Con from 5.53162e-007 to 5.53162e-007
Heightened Def Con from 5.53162e-007 to 5.53163e-007
Heightened Def Con from 5.53163e-007 to 5.53167e-007
Heightened Def Con from 5.5317e-007 to 5.53172e-007
Heightened Def Con from 5.53172e-007 to 5.53172e-007
Heightened Def Con from 5.53172e-007 to 5.53172e-007
Heightened Def Con from 5.53172e-007 to 5.53172e-007
Heightened Def Con from 5.53172e-007 to 5.53172e-007
Heightened Def Con from 5.53172e-007 to 5.53174e-007
Heightened Def Con from 5.53174e-007 +to 5.53178e-007
Heightened Def Con from 5.53178e-007 +to 5.53178e-007
Heightened Def Con from 5.53178e-007 +++to 5.53182e-007
Heightened Def Con from 5.53182e-007 to 5.53186e-007
Heightened Def Con from 5.53187e-007 +to 5.53187e-007
Heightened Def Con from 5.53187e-007 to 5.53187e-007
Heightened Def Con from 5.53187e-007 to 5.53187e-007
Heightened Def Con from 5.53187e-007 to 5.53188e-007
Heightened Def Con from 5.53188e-007 to 5.53188e-007
Heightened Def Con from 5.53188e-007 to 5.53188e-007
Heightened Def Con from 5.53188e-007 to 5.53188e-007
Heightened Def Con from 5.53188e-007 to 5.53188e-007
Heightened Def Con from 5.53188e-007 to 5.53188e-007
Heightened Def Con from 5.53188e-007 to 5.53188e-007
Heightened Def Con from 5.5319e-007 to 5.5319e-007
Heightened Def Con from 5.5319e-007 to 5.53192e-007
Heightened Def Con from 5.53192e-007 to 5.53192e-007
Heightened Def Con from 5.53192e-007 +to 5.53193e-007
Heightened Def Con from 5.53193e-007 to 5.53193e-007
Heightened Def Con from 5.53193e-007 to 5.53193e-007
Heightened Def Con from 5.53193e-007 to 5.53193e-007
Heightened Def Con from 5.53193e-007 to 5.53193e-007
Heightened Def Con from 5.53193e-007 to 5.53194e-007
Heightened Def Con from 5.53194e-007 +to 5.53196e-007
Heightened Def Con from 5.53196e-007 to 5.53198e-007
Heightened Def Con from 5.53198e-007 +to 5.532e-007
Heightened Def Con from 5.532e-007 to 5.53204e-007
Heightened Def Con from 5.53205e-007 to 5.53205e-007
Heightened Def Con from 5.53205e-007 to 5.53205e-007
Heightened Def Con from 5.53206e-007 to 5.53206e-007
Heightened Def Con from 5.53206e-007 to 5.53206e-007
Heightened Def Con from 5.53206e-007 +to 5.53206e-007
Heightened Def Con from 5.53206e-007 +to 5.53208e-007
Heightened Def Con from 5.53208e-007 to 5.53208e-007
Heightened Def Con from 5.53208e-007 +to 5.5321e-007
Heightened Def Con from 5.5321e-007 to 5.5321e-007
Heightened Def Con from 5.5321e-007 to 5.5321e-007
Heightened Def Con from 5.5321e-007 to 5.53211e-007
Heightened Def Con from 5.53211e-007 to 5.53211e-007
Heightened Def Con from 5.53211e-007 to 5.53211e-007
Heightened Def Con from 5.53211e-007 to 5.53211e-007
Heightened Def Con from 5.53211e-007 to 5.53213e-007
Heightened Def Con from 5.53214e-007 to 5.53218e-007
Heightened Def Con from 5.5322e-007 to 5.5322e-007
Heightened Def Con from 5.5322e-007 to 5.5322e-007
Heightened Def Con from 5.5322e-007 to 5.53221e-007
Heightened Def Con from 5.53221e-007 to 5.53221e-007
Heightened Def Con from 5.53221e-007 to 5.53221e-007
Heightened Def Con from 5.53221e-007 to 5.53225e-007
Heightened Def Con from 5.53225e-007 to 5.53225e-007
Heightened Def Con from 5.53225e-007 to 5.53227e-007
Heightened Def Con from 5.53227e-007 to 5.53229e-007
Heightened Def Con from 5.5323e-007 to 5.5323e-007
Heightened Def Con from 5.53231e-007 to 5.53231e-007
Heightened Def Con from 5.53231e-007 to 5.53235e-007
Heightened Def Con from 5.53251e-007 +to 5.53251e-007
Heightened Def Con from 5.53251e-007 to 5.53253e-007
Heightened Def Con from 5.53253e-007 to 5.53257e-007
Heightened Def Con from 5.53259e-007 to 5.5326e-007
Heightened Def Con from 5.5326e-007 to 5.5326e-007
Heightened Def Con from 5.53261e-007 to 5.53511e-007
Heightened Def Con from 5.53511e-007 to 5.61511e-007
Heightened Def Con from 5.72831e-007 to 5.75831e-007
Heightened Def Con from 5.75836e-007 to 5.78836e-007
Heightened Def Con from 5.82105e-007 to 5.85105e-007
Heightened Def Con from 6.21868e-007 to 6.24868e-007
Heightened Def Con from 6.73527e-007 to 6.76527e-007
Heightened Def Con from 6.7853e-007 to 6.79655e-007
Heightened Def Con from 6.80425e-007 to 6.80566e-007
Heightened Def Con from 6.80566e-007 to 6.80566e-007
Heightened Def Con from 6.80566e-007 to 6.80584e-007
Heightened Def Con from 6.80584e-007 to 6.80588e-007
Heightened Def Con from 6.80603e-007 to 6.80618e-007
Heightened Def Con from 6.80618e-007 to 6.80634e-007
Heightened Def Con from 6.80634e-007 to 6.80636e-007
Heightened Def Con from 6.80636e-007 +to 6.80636e-007
Heightened Def Con from 6.80636e-007 +to 6.80652e-007
Heightened Def Con from 6.80652e-007 to 6.80654e-007
Heightened Def Con from 6.80655e-007 to 6.80661e-007
Heightened Def Con from 6.80661e-007 to 6.80667e-007
Heightened Def Con from 6.80667e-007 to 6.80685e-007
Heightened Def Con from 6.80687e-007 to 6.80939e-007
Heightened Def Con from 6.80939e-007 to 6.80939e-007
Heightened Def Con from 6.80939e-007 to 6.80986e-007
Heightened Def Con from 6.80986e-007 to 6.80987e-007
Heightened Def Con from 6.80987e-007 to 6.81005e-007
Heightened Def Con from 6.81005e-007 +to 6.81005e-007
Heightened Def Con from 6.81005e-007 to 6.81005e-007
Heightened Def Con from 6.81005e-007 to 6.81021e-007
Heightened Def Con from 6.81021e-007 to 6.81021e-007
Heightened Def Con from 6.81021e-007 to 6.81021e-007
Heightened Def Con from 6.81021e-007 to 6.81021e-007
Heightened Def Con from 6.81021e-007 to 6.81022e-007
Heightened Def Con from 6.81022e-007 to 6.81773e-007
Heightened Def Con from 6.81774e-007 to 6.81774e-007
Heightened Def Con from 6.81774e-007 to 6.8179e-007
Heightened Def Con from 6.81791e-007 +to 6.81792e-007
Heightened Def Con from 6.81792e-007 +to 6.81823e-007
Heightened Def Con from 6.81823e-007 to 6.81827e-007
Heightened Def Con from 6.81828e-007 to 6.81843e-007
Heightened Def Con from 6.81843e-007 +to 6.81845e-007
Heightened Def Con from 6.81846e-007 to 6.81849e-007
Heightened Def Con from 6.8185e-007 to 6.8185e-007
Heightened Def Con from 6.8185e-007 to 6.81866e-007
Heightened Def Con from 6.81867e-007 to 6.81899e-007
Heightened Def Con from 6.81899e-007 to 6.81914e-007
Heightened Def Con from 6.81914e-007 to 6.81918e-007
Heightened Def Con from 6.81918e-007 to 6.8195e-007
Heightened Def Con from 6.81952e-007 to 6.81999e-007
Heightened Def Con from 6.82003e-007 to 6.82128e-007
Heightened Def Con from 6.82128e-007 to 6.92128e-007
Heightened Def Con from 8.73194e-007 to 8.77194e-007
Heightened Def Con from 4.55389e-006 to 4.55489e-006
Heightened Def Con from 4.55489e-006 to 4.55526e-006
Heightened Def Con from 4.55549e-006 to 4.55562e-006
Heightened Def Con from 4.55562e-006 to 4.55562e-006
Heightened Def Con from 4.55562e-006 to 4.55563e-006
Heightened Def Con from 4.55563e-006 to 4.55564e-006
Heightened Def Con from 4.55564e-006 to 4.55564e-006
Heightened Def Con from 4.55564e-006 to 4.55564e-006
Heightened Def Con from 4.55564e-006 to 4.55564e-006
Heightened Def Con from 4.55564e-006 to 4.55576e-006
Heightened Def Con from 4.55576e-006 to 4.55701e-006
Heightened Def Con from 4.55701e-006 to 4.58101e-006
Heightened Def Con from 4.64004e-006 to 4.64104e-006
Heightened Def Con from 4.64283e-006 to 4.64297e-006
Heightened Def Con from 4.64297e-006 to 4.64311e-006
Heightened Def Con from 4.64311e-006 to 4.64325e-006
Heightened Def Con from 4.64325e-006 +to 4.64326e-006
Heightened Def Con from 4.64326e-006 to 4.64326e-006
Heightened Def Con from 4.64326e-006 to 4.64351e-006
Heightened Def Con from 4.64351e-006 to 4.64353e-006
Heightened Def Con from 4.64353e-006 to 4.64353e-006
Heightened Def Con from 4.64353e-006 to 4.64353e-006
Heightened Def Con from 4.64354e-006 to 4.64355e-006
Heightened Def Con from 4.64355e-006 to 4.64356e-006
Heightened Def Con from 4.64356e-006 to 4.64356e-006
Heightened Def Con from 4.64356e-006 ++to 4.64356e-006
Heightened Def Con from 4.64356e-006 to 4.64356e-006
Heightened Def Con from 4.64356e-006 to 4.64358e-006
Heightened Def Con from 4.64358e-006 +to 4.64358e-006
Heightened Def Con from 4.64358e-006 +to 4.64361e-006
Heightened Def Con from 4.64361e-006 to 4.64363e-006
Heightened Def Con from 4.64363e-006 to 4.64366e-006
Heightened Def Con from 4.64366e-006 to 4.64367e-006
Heightened Def Con from 4.64367e-006 to 4.64372e-006
Heightened Def Con from 4.64382e-006 to 4.64383e-006
Heightened Def Con from 4.64383e-006 to 4.64388e-006
Heightened Def Con from 4.64388e-006 to 4.64388e-006
Heightened Def Con from 4.64388e-006 to 4.64392e-006
Heightened Def Con from 4.64392e-006 +to 4.64392e-006
Heightened Def Con from 4.64392e-006 to 4.64394e-006
Heightened Def Con from 4.64394e-006 to 4.64396e-006
Heightened Def Con from 4.64396e-006 to 4.64397e-006
Heightened Def Con from 4.64398e-006 +to 4.64399e-006
Heightened Def Con from 4.64399e-006 to 4.64399e-006
Heightened Def Con from 4.64399e-006 to 4.644e-006
Heightened Def Con from 4.644e-006 +++to 4.64402e-006
Heightened Def Con from 4.64402e-006 to 4.64402e-006
Heightened Def Con from 4.64402e-006 to 4.64404e-006
Heightened Def Con from 4.64404e-006 to 4.64404e-006
Heightened Def Con from 4.64404e-006 to 4.64405e-006
Heightened Def Con from 4.64405e-006 +to 4.64405e-006
Heightened Def Con from 4.64407e-006 +to 4.64409e-006
Heightened Def Con from 4.64409e-006 to 4.64413e-006
Heightened Def Con from 4.64413e-006 to 4.64415e-006
Heightened Def Con from 4.64415e-006 to 4.64415e-006
Heightened Def Con from 4.64415e-006 to 4.64415e-006
Heightened Def Con from 4.64415e-006 +to 4.64415e-006
Heightened Def Con from 4.64415e-006 to 4.64415e-006
Heightened Def Con from 4.64415e-006 +to 4.64415e-006
Heightened Def Con from 4.64415e-006 to 4.64415e-006
Heightened Def Con from 4.64415e-006 to 4.64417e-006
Heightened Def Con from 4.64417e-006 to 4.64417e-006
Heightened Def Con from 4.64417e-006 to 4.64419e-006
Heightened Def Con from 4.64419e-006 to 4.64419e-006
Heightened Def Con from 4.64419e-006 to 4.64419e-006
Heightened Def Con from 4.64419e-006 to 4.64421e-006
Heightened Def Con from 4.64421e-006 to 4.64421e-006
Heightened Def Con from 4.64421e-006 to 4.64421e-006
Heightened Def Con from 4.64421e-006 to 4.64423e-006
Heightened Def Con from 4.64423e-006 to 4.64427e-006
Heightened Def Con from 4.64427e-006 to 4.64432e-006
Heightened Def Con from 4.64432e-006 to 4.64432e-006
Heightened Def Con from 4.64432e-006 to 4.64437e-006
Heightened Def Con from 4.64441e-006 to 4.64441e-006
Heightened Def Con from 4.64441e-006 to 4.64442e-006
Heightened Def Con from 4.64442e-006 to 4.64443e-006
Heightened Def Con from 4.64443e-006 to 4.64443e-006
Heightened Def Con from 4.64443e-006 +to 4.64443e-006
Heightened Def Con from 4.64443e-006 to 4.64443e-006
Heightened Def Con from 4.64443e-006 to 4.64443e-006
Heightened Def Con from 4.64443e-006 to 4.64443e-006
Heightened Def Con from 4.64444e-006 to 4.64444e-006
Heightened Def Con from 4.64444e-006 to 4.64446e-006
Heightened Def Con from 4.64446e-006 to 4.64447e-006
Heightened Def Con from 4.64447e-006 to 4.64447e-006
Heightened Def Con from 4.64448e-006 to 4.6445e-006
Heightened Def Con from 4.6445e-006 to 4.64451e-006
Heightened Def Con from 4.64451e-006 to 4.64453e-006
Heightened Def Con from 4.64453e-006 to 4.64453e-006
Heightened Def Con from 4.64453e-006 +to 4.64455e-006
Heightened Def Con from 4.64455e-006 to 4.64458e-006
Heightened Def Con from 4.64458e-006 to 4.6446e-006
Heightened Def Con from 4.6446e-006 to 4.6446e-006
Heightened Def Con from 4.6446e-006 to 4.64463e-006
Heightened Def Con from 4.64463e-006 +to 4.64464e-006
Heightened Def Con from 4.64464e-006 to 4.64464e-006
Heightened Def Con from 4.64464e-006 to 4.64464e-006
Heightened Def Con from 4.64464e-006 to 4.64464e-006
Heightened Def Con from 4.64464e-006 to 4.64464e-006
Heightened Def Con from 4.64464e-006 to 4.64466e-006
Heightened Def Con from 4.64466e-006 to 4.64466e-006
Heightened Def Con from 4.64466e-006 +to 4.64466e-006
Heightened Def Con from 4.64466e-006 to 4.64468e-006
Heightened Def Con from 4.64468e-006 +to 4.64469e-006
Heightened Def Con from 4.64469e-006 to 4.64474e-006
Heightened Def Con from 4.64478e-006 to 4.64479e-006
Heightened Def Con from 4.6448e-006 to 4.64481e-006
Heightened Def Con from 4.64482e-006 to 4.64482e-006
Heightened Def Con from 4.64482e-006 to 4.64484e-006
Heightened Def Con from 4.64484e-006 to 4.64484e-006
Heightened Def Con from 4.64484e-006 to 4.64485e-006
Heightened Def Con from 4.64485e-006 +to 4.64487e-006
Heightened Def Con from 4.64487e-006 to 4.64487e-006
Heightened Def Con from 4.64488e-006 to 4.64488e-006
Heightened Def Con from 4.64489e-006 to 4.64489e-006
Heightened Def Con from 4.64489e-006 to 4.64489e-006
Heightened Def Con from 4.64489e-006 +to 4.6449e-006
Heightened Def Con from 4.64491e-006 to 4.64492e-006
Heightened Def Con from 4.64492e-006 to 4.64492e-006
Heightened Def Con from 4.64492e-006 to 4.64494e-006
Heightened Def Con from 4.64494e-006 +to 4.64494e-006
Heightened Def Con from 4.64494e-006 to 4.64494e-006
Heightened Def Con from 4.64494e-006 to 4.64496e-006
Heightened Def Con from 4.64496e-006 to 4.64496e-006
Heightened Def Con from 4.64496e-006 to 4.645e-006
Heightened Def Con from 4.64502e-006 to 4.64514e-006
Heightened Def Con from 4.64514e-006 to 4.65914e-006
Heightened Def Con from 4.65917e-006 to 4.66217e-006
Heightened Def Con from 4.66225e-006 to 4.66525e-006
Heightened Def Con from 4.66531e-006 to 4.67031e-006
Heightened Def Con from 4.68675e-006 to 4.68975e-006
Heightened Def Con from 4.7066e-006 to 4.7096e-006
Heightened Def Con from 4.72645e-006 to 4.72945e-006
Heightened Def Con from 4.74609e-006 to 4.74909e-006
Heightened Def Con from 4.76033e-006 to 4.76333e-006
Heightened Def Con from 4.76533e-006 to 4.76533e-006
Heightened Def Con from 4.76533e-006 to 4.76533e-006
Heightened Def Con from 4.76533e-006 to 4.76533e-006
Heightened Def Con from 4.76533e-006 to 4.76533e-006
Heightened Def Con from 4.76533e-006 to 4.76533e-006
Heightened Def Con from 4.76534e-006 to 4.76534e-006
Heightened Def Con from 4.76534e-006 to 4.76534e-006
Heightened Def Con from 4.76534e-006 to 4.76534e-006
Heightened Def Con from 4.76534e-006 to 4.76534e-006
Heightened Def Con from 4.76536e-006 to 4.76536e-006
Heightened Def Con from 4.76536e-006 to 4.76536e-006
Heightened Def Con from 4.76536e-006 to 4.76536e-006
Heightened Def Con from 4.76536e-006 to 4.76537e-006
Heightened Def Con from 4.76537e-006 to 4.76537e-006
Heightened Def Con from 4.76537e-006 to 4.76537e-006
Heightened Def Con from 4.76538e-006 to 4.76538e-006
Heightened Def Con from 4.76538e-006 to 4.76538e-006
Heightened Def Con from 4.76539e-006 to 4.76539e-006
Heightened Def Con from 4.76539e-006 to 4.7654e-006
Heightened Def Con from 4.7654e-006 to 4.7654e-006
Heightened Def Con from 4.7654e-006 to 4.7654e-006
Heightened Def Con from 4.76541e-006 to 4.76541e-006
Heightened Def Con from 4.76541e-006 to 4.76541e-006
Heightened Def Con from 4.76541e-006 to 4.76541e-006
Heightened Def Con from 4.76541e-006 to 4.76541e-006
Heightened Def Con from 4.76541e-006 to 4.76541e-006
Heightened Def Con from 4.76541e-006 to 4.76541e-006
Heightened Def Con from 4.76541e-006 to 4.76541e-006
Heightened Def Con from 4.76541e-006 to 4.76541e-006
Heightened Def Con from 4.76541e-006 to 4.76542e-006
Heightened Def Con from 4.76542e-006 to 4.76542e-006
Heightened Def Con from 4.76543e-006 to 4.76544e-006
Heightened Def Con from 4.7655e-006 to 4.7655e-006
Heightened Def Con from 4.7655e-006 to 4.7655e-006
Heightened Def Con from 4.76551e-006 to 4.76551e-006
Heightened Def Con from 4.76551e-006 to 4.76551e-006
Heightened Def Con from 4.76551e-006 to 4.76552e-006
Heightened Def Con from 4.76552e-006 to 4.76552e-006
Heightened Def Con from 4.76554e-006 to 4.76554e-006
Heightened Def Con from 4.76554e-006 to 4.76554e-006
Heightened Def Con from 4.76554e-006 to 4.76554e-006
Heightened Def Con from 4.76554e-006 to 4.76554e-006
Heightened Def Con from 4.76554e-006 to 4.76555e-006
Heightened Def Con from 4.76555e-006 to 4.76555e-006
Heightened Def Con from 4.76555e-006 to 4.76555e-006
Heightened Def Con from 4.76555e-006 to 4.76555e-006
Heightened Def Con from 4.76555e-006 to 4.76555e-006
Heightened Def Con from 4.76555e-006 to 4.76556e-006
Heightened Def Con from 4.76556e-006 to 4.76556e-006
Heightened Def Con from 4.76556e-006 +to 4.76556e-006
Heightened Def Con from 4.76556e-006 to 4.76556e-006
Heightened Def Con from 4.76556e-006 to 4.76556e-006
Heightened Def Con from 4.76556e-006 to 4.76556e-006
Heightened Def Con from 4.76556e-006 to 4.76557e-006
Heightened Def Con from 4.76557e-006 to 4.76557e-006
Heightened Def Con from 4.76557e-006 to 4.76557e-006
Heightened Def Con from 4.76557e-006 to 4.76557e-006
Heightened Def Con from 4.76558e-006 to 4.76558e-006
Heightened Def Con from 4.76559e-006 to 4.76559e-006
Heightened Def Con from 4.76559e-006 to 4.76559e-006
Heightened Def Con from 4.76559e-006 to 4.76559e-006
Heightened Def Con from 4.7656e-006 +to 4.7656e-006
Heightened Def Con from 4.7656e-006 to 4.7656e-006
Heightened Def Con from 4.7656e-006 to 4.76561e-006
Heightened Def Con from 4.76561e-006 to 4.76561e-006
Heightened Def Con from 4.76561e-006 to 4.76561e-006
Heightened Def Con from 4.76561e-006 to 4.76561e-006
Heightened Def Con from 4.76561e-006 to 4.76561e-006
Heightened Def Con from 4.76561e-006 to 4.76561e-006
Heightened Def Con from 4.76561e-006 to 4.76561e-006
Heightened Def Con from 4.76561e-006 to 4.76562e-006
Heightened Def Con from 4.76564e-006 to 4.76564e-006
Heightened Def Con from 4.76565e-006 to 4.76565e-006
Heightened Def Con from 4.76565e-006 to 4.76565e-006
Heightened Def Con from 4.76565e-006 to 4.76565e-006
Heightened Def Con from 4.76567e-006 to 4.76567e-006
Heightened Def Con from 4.76567e-006 to 4.76567e-006
Heightened Def Con from 4.76567e-006 to 4.76567e-006
Heightened Def Con from 4.76567e-006 to 4.76567e-006
Heightened Def Con from 4.76567e-006 to 4.76567e-006
Heightened Def Con from 4.76567e-006 to 4.76567e-006
Heightened Def Con from 4.76568e-006 to 4.76568e-006
Heightened Def Con from 4.76568e-006 to 4.76568e-006
Heightened Def Con from 4.76568e-006 to 4.76568e-006
Heightened Def Con from 4.76568e-006 to 4.76568e-006
Heightened Def Con from 4.76568e-006 +to 4.76568e-006
Heightened Def Con from 4.76568e-006 +to 4.76568e-006
Heightened Def Con from 4.76568e-006 to 4.76569e-006
Heightened Def Con from 4.76569e-006 to 4.76569e-006
Heightened Def Con from 4.76576e-006 to 4.76576e-006
Heightened Def Con from 4.76576e-006 to 4.76576e-006
Heightened Def Con from 4.76576e-006 to 4.76576e-006
Heightened Def Con from 4.76576e-006 to 4.76576e-006
Heightened Def Con from 4.76576e-006 to 4.76576e-006
Heightened Def Con from 4.76577e-006 +to 4.76577e-006
Heightened Def Con from 4.76579e-006 to 4.76579e-006
Heightened Def Con from 4.76579e-006 to 4.76579e-006
Heightened Def Con from 4.76579e-006 to 4.7658e-006
Heightened Def Con from 4.7658e-006 to 4.7658e-006
Heightened Def Con from 4.7658e-006 to 4.7658e-006
Heightened Def Con from 4.7658e-006 to 4.7658e-006
Heightened Def Con from 4.7658e-006 to 4.7658e-006
Heightened Def Con from 4.7658e-006 to 4.76581e-006
Heightened Def Con from 4.76581e-006 to 4.76581e-006
Heightened Def Con from 4.76581e-006 to 4.76581e-006
Heightened Def Con from 4.76582e-006 to 4.76582e-006
Heightened Def Con from 4.76582e-006 to 4.76582e-006
Heightened Def Con from 4.76582e-006 to 4.76583e-006
Heightened Def Con from 4.76584e-006 to 4.76584e-006
Heightened Def Con from 4.76584e-006 to 4.76584e-006
Heightened Def Con from 4.76584e-006 to 4.76584e-006
Heightened Def Con from 4.76585e-006 to 4.76585e-006
Heightened Def Con from 4.76585e-006 to 4.76585e-006
Heightened Def Con from 4.76585e-006 to 4.76585e-006
Heightened Def Con from 4.76585e-006 to 4.76585e-006
Heightened Def Con from 4.76585e-006 to 4.76585e-006
Heightened Def Con from 4.76585e-006 to 4.76585e-006
Heightened Def Con from 4.76585e-006 to 4.76586e-006
Heightened Def Con from 4.76586e-006 to 4.76586e-006
Heightened Def Con from 4.76586e-006 to 4.76586e-006
Heightened Def Con from 4.76586e-006 to 4.76586e-006
Heightened Def Con from 4.76587e-006 to 4.76587e-006
Heightened Def Con from 4.76587e-006 to 4.76587e-006
Heightened Def Con from 4.76587e-006 to 4.76587e-006
Heightened Def Con from 4.76587e-006 to 4.76588e-006
Heightened Def Con from 4.76589e-006 to 4.7659e-006
Heightened Def Con from 4.7659e-006 to 4.7659e-006
Heightened Def Con from 4.7659e-006 to 4.7659e-006
Heightened Def Con from 4.7659e-006 to 4.7659e-006
Heightened Def Con from 4.7659e-006 to 4.76591e-006
Heightened Def Con from 4.76591e-006 to 4.76591e-006
Heightened Def Con from 4.76591e-006 to 4.76591e-006
Heightened Def Con from 4.76591e-006 to 4.76591e-006
Heightened Def Con from 4.76591e-006 to 4.76591e-006
Heightened Def Con from 4.76591e-006 to 4.76591e-006
Heightened Def Con from 4.76591e-006 to 4.76591e-006
Heightened Def Con from 4.76591e-006 to 4.76591e-006
Heightened Def Con from 4.76592e-006 to 4.76592e-006
Heightened Def Con from 4.76592e-006 to 4.76592e-006
Heightened Def Con from 4.76593e-006 to 4.76593e-006
Heightened Def Con from 4.76593e-006 to 4.76593e-006
Heightened Def Con from 4.76593e-006 to 4.76593e-006
Heightened Def Con from 4.76593e-006 to 4.76593e-006
Heightened Def Con from 4.76593e-006 to 4.76594e-006
Heightened Def Con from 4.76594e-006 to 4.76595e-006
Heightened Def Con from 4.76595e-006 to 4.76595e-006
Heightened Def Con from 4.76596e-006 to 4.76596e-006
Heightened Def Con from 4.76596e-006 to 4.76596e-006
Heightened Def Con from 4.76596e-006 to 4.76596e-006
Heightened Def Con from 4.76596e-006 to 4.76596e-006
Heightened Def Con from 4.76597e-006 to 4.76597e-006
Heightened Def Con from 4.76597e-006 to 4.76597e-006
Heightened Def Con from 4.76597e-006 to 4.76597e-006
Heightened Def Con from 4.76597e-006 to 4.76597e-006
Heightened Def Con from 4.76598e-006 to 4.76598e-006
Heightened Def Con from 4.76598e-006 to 4.76598e-006
Heightened Def Con from 4.76598e-006 to 4.76598e-006
Heightened Def Con from 4.76598e-006 to 4.76598e-006
Heightened Def Con from 4.76598e-006 to 4.76598e-006
Heightened Def Con from 4.76598e-006 to 4.76598e-006
Heightened Def Con from 4.76599e-006 to 4.76599e-006
Heightened Def Con from 4.76599e-006 to 4.76599e-006
Heightened Def Con from 4.766e-006 +to 4.766e-006
Heightened Def Con from 4.766e-006 to 4.766e-006
Heightened Def Con from 4.766e-006 to 4.766e-006
Heightened Def Con from 4.766e-006 to 4.766e-006
Heightened Def Con from 4.766e-006 to 4.766e-006
Heightened Def Con from 4.766e-006 to 4.766e-006
Heightened Def Con from 4.766e-006 to 4.766e-006
Heightened Def Con from 4.766e-006 to 4.76601e-006
Heightened Def Con from 4.76601e-006 to 4.76601e-006
Heightened Def Con from 4.76601e-006 to 4.76601e-006
Heightened Def Con from 4.76601e-006 to 4.76602e-006
Heightened Def Con from 4.76602e-006 to 4.76602e-006
Heightened Def Con from 4.76602e-006 to 4.76602e-006
Heightened Def Con from 4.76602e-006 to 4.76602e-006
Heightened Def Con from 4.76602e-006 to 4.76602e-006
Heightened Def Con from 4.76602e-006 to 4.76602e-006
Heightened Def Con from 4.76602e-006 to 4.76603e-006
Heightened Def Con from 4.76603e-006 to 4.76603e-006
Heightened Def Con from 4.76603e-006 to 4.76603e-006
Heightened Def Con from 4.76603e-006 to 4.76603e-006
Heightened Def Con from 4.76603e-006 to 4.76604e-006
Heightened Def Con from 4.76604e-006 to 4.76604e-006
Heightened Def Con from 4.76604e-006 to 4.76604e-006
Heightened Def Con from 4.76604e-006 to 4.76604e-006
Heightened Def Con from 4.76604e-006 to 4.76604e-006
Heightened Def Con from 4.76604e-006 +to 4.76605e-006
Heightened Def Con from 4.76605e-006 to 4.76605e-006
Heightened Def Con from 4.76605e-006 to 4.76605e-006
Heightened Def Con from 4.76605e-006 to 4.76605e-006
Heightened Def Con from 4.76605e-006 to 4.76605e-006
Heightened Def Con from 4.76605e-006 to 4.76606e-006
Heightened Def Con from 4.76606e-006 to 4.76606e-006
Heightened Def Con from 4.76606e-006 to 4.76606e-006
Heightened Def Con from 4.76606e-006 to 4.76606e-006
Heightened Def Con from 4.76606e-006 to 4.76606e-006
Heightened Def Con from 4.76606e-006 to 4.76607e-006
Heightened Def Con from 4.76607e-006 to 4.76607e-006
Heightened Def Con from 4.76607e-006 to 4.76607e-006
Heightened Def Con from 4.76607e-006 to 4.76607e-006
Heightened Def Con from 4.76607e-006 to 4.76607e-006
Heightened Def Con from 4.76607e-006 to 4.76607e-006
Heightened Def Con from 4.76608e-006 to 4.76608e-006
Heightened Def Con from 4.76608e-006 to 4.76609e-006
Heightened Def Con from 4.76609e-006 to 4.76609e-006
Heightened Def Con from 4.76609e-006 to 4.76609e-006
Heightened Def Con from 4.76609e-006 to 4.76609e-006
Heightened Def Con from 4.76609e-006 to 4.76609e-006
Heightened Def Con from 4.76609e-006 to 4.76609e-006
Heightened Def Con from 4.7661e-006 to 4.7661e-006
Heightened Def Con from 4.7661e-006 to 4.7661e-006
Heightened Def Con from 4.7661e-006 to 4.7661e-006
Heightened Def Con from 4.76612e-006 to 4.76612e-006
Heightened Def Con from 4.76612e-006 +to 4.76612e-006
Heightened Def Con from 4.76612e-006 to 4.76612e-006
Heightened Def Con from 4.76612e-006 to 4.76612e-006
Heightened Def Con from 4.76612e-006 to 4.76612e-006
Heightened Def Con from 4.76612e-006 to 4.76612e-006
Heightened Def Con from 4.76612e-006 to 4.76612e-006
Heightened Def Con from 4.76613e-006 to 4.76613e-006
Heightened Def Con from 4.76613e-006 to 4.76613e-006
Heightened Def Con from 4.76613e-006 to 4.76613e-006
Heightened Def Con from 4.76613e-006 to 4.76613e-006
Heightened Def Con from 4.76613e-006 to 4.76613e-006
Heightened Def Con from 4.76614e-006 to 4.76614e-006
Heightened Def Con from 4.76614e-006 to 4.76614e-006
Heightened Def Con from 4.76614e-006 to 4.76614e-006
Heightened Def Con from 4.76614e-006 to 4.76614e-006
Heightened Def Con from 4.76614e-006 to 4.76614e-006
Heightened Def Con from 4.76614e-006 to 4.76614e-006
Heightened Def Con from 4.76614e-006 to 4.76614e-006
Heightened Def Con from 4.76615e-006 to 4.76615e-006
Heightened Def Con from 4.76615e-006 to 4.76615e-006
Heightened Def Con from 4.76615e-006 to 4.76615e-006
Heightened Def Con from 4.76615e-006 +to 4.76615e-006
Heightened Def Con from 4.76616e-006 to 4.76616e-006
Heightened Def Con from 4.76616e-006 to 4.76616e-006
Heightened Def Con from 4.76616e-006 to 4.76617e-006
Heightened Def Con from 4.76617e-006 to 4.76617e-006
Heightened Def Con from 4.76617e-006 to 4.76617e-006
Heightened Def Con from 4.76617e-006 to 4.76617e-006
Heightened Def Con from 4.76618e-006 +to 4.76618e-006
Heightened Def Con from 4.76619e-006 to 4.76619e-006
Heightened Def Con from 4.76619e-006 to 4.76619e-006
Heightened Def Con from 4.76619e-006 to 4.76619e-006
Heightened Def Con from 4.76619e-006 to 4.76619e-006
Heightened Def Con from 4.76619e-006 to 4.76619e-006
Heightened Def Con from 4.76621e-006 to 4.76708e-006
Heightened Def Con from 4.77368e-006 to 4.77768e-006
Heightened Def Con from 4.79903e-006 to 4.80203e-006
Heightened Def Con from 4.99155e-006 to 4.99355e-006
Heightened Def Con from 4.99358e-006 to 4.99658e-006
Heightened Def Con from 5.0005e-006 to 5.0005e-006
Heightened Def Con from 5.00056e-006 to 5.00101e-006
Heightened Def Con from 5.00101e-006 to 5.00301e-006
Heightened Def Con from 5.00411e-006 to 5.00611e-006
Heightened Def Con from 5.45953e-006 to 5.46153e-006
Heightened Def Con from 5.46485e-006 to 5.46898e-006
Heightened Def Con from 5.46929e-006 to 5.47029e-006
Heightened Def Con from 5.47029e-006 to 5.47029e-006
Heightened Def Con from 5.4703e-006 to 5.47042e-006
Heightened Def Con from 5.47052e-006 to 5.47064e-006
Heightened Def Con from 5.47064e-006 to 5.47165e-006
Heightened Def Con from 5.47167e-006 to 5.47204e-006
Heightened Def Con from 5.47231e-006 to 5.47243e-006
Heightened Def Con from 5.47247e-006 to 5.4766e-006
Heightened Def Con from 5.4766e-006 to 5.4976e-006
Heightened Def Con from 5.49763e-006 to 5.50063e-006
Heightened Def Con from 5.55004e-006 to 5.55304e-006
Heightened Def Con from 5.55304e-006 to 5.55304e-006
Heightened Def Con from 5.55304e-006 to 5.55304e-006
Heightened Def Con from 5.55304e-006 to 5.55304e-006
Heightened Def Con from 5.55304e-006 to 5.55304e-006
Heightened Def Con from 5.55304e-006 to 5.55304e-006
Heightened Def Con from 5.55304e-006 to 5.55304e-006
Heightened Def Con from 5.55304e-006 to 5.55304e-006
Heightened Def Con from 5.55304e-006 to 5.55304e-006
Heightened Def Con from 5.55304e-006 to 5.55304e-006
Heightened Def Con from 5.55304e-006 to 5.55304e-006
Heightened Def Con from 5.55304e-006 to 5.55304e-006
Heightened Def Con from 5.55304e-006 to 5.55304e-006
Heightened Def Con from 5.55304e-006 to 5.55304e-006
Heightened Def Con from 5.55304e-006 to 5.55304e-006
Heightened Def Con from 5.55304e-006 to 5.55304e-006
Heightened Def Con from 5.55304e-006 to 5.55304e-006
Heightened Def Con from 5.55304e-006 to 5.55304e-006
Heightened Def Con from 5.55304e-006 to 5.55304e-006
Heightened Def Con from 5.55304e-006 to 5.55304e-006
Heightened Def Con from 5.55304e-006 to 5.55304e-006
Heightened Def Con from 5.55304e-006 to 5.55305e-006
Heightened Def Con from 5.55305e-006 to 5.55305e-006
Heightened Def Con from 5.55305e-006 to 5.55305e-006
Heightened Def Con from 5.55305e-006 to 5.55305e-006
Heightened Def Con from 5.55305e-006 to 5.55305e-006
Heightened Def Con from 5.55305e-006 to 5.55305e-006
Heightened Def Con from 5.55305e-006 to 5.55305e-006
Heightened Def Con from 5.55305e-006 to 5.55305e-006
Heightened Def Con from 5.55305e-006 to 5.55305e-006
Heightened Def Con from 5.55305e-006 +to 5.55305e-006
Heightened Def Con from 5.55305e-006 +to 5.55305e-006
Heightened Def Con from 5.55305e-006 to 5.55305e-006
Heightened Def Con from 5.55305e-006 to 5.55305e-006
Heightened Def Con from 5.55305e-006 to 5.55305e-006
Heightened Def Con from 5.55305e-006 to 5.55305e-006
Heightened Def Con from 5.55305e-006 to 5.55305e-006
Heightened Def Con from 5.55305e-006 to 5.55305e-006
Heightened Def Con from 5.55305e-006 to 5.55305e-006
Heightened Def Con from 5.55305e-006 to 5.55305e-006
Heightened Def Con from 5.55305e-006 to 5.55305e-006
Heightened Def Con from 5.55305e-006 to 5.55305e-006
Heightened Def Con from 5.55305e-006 to 5.55305e-006
Heightened Def Con from 5.55305e-006 to 5.55305e-006
Heightened Def Con from 5.55305e-006 to 5.55305e-006
Heightened Def Con from 5.55305e-006 +to 5.55305e-006
Heightened Def Con from 5.55305e-006 to 5.55305e-006
Heightened Def Con from 5.55305e-006 to 5.55305e-006
Heightened Def Con from 5.55305e-006 to 5.55305e-006
Heightened Def Con from 5.55305e-006 to 5.55305e-006
Heightened Def Con from 5.55305e-006 to 5.55305e-006
Heightened Def Con from 5.55305e-006 to 5.55305e-006
Heightened Def Con from 5.55305e-006 to 5.55305e-006
Heightened Def Con from 5.55305e-006 to 5.55305e-006
Heightened Def Con from 5.55305e-006 to 5.55305e-006
Heightened Def Con from 5.55305e-006 to 5.55305e-006
Heightened Def Con from 5.55305e-006 to 5.55305e-006
Heightened Def Con from 5.55305e-006 to 5.55305e-006
Heightened Def Con from 5.55305e-006 to 5.55305e-006
Heightened Def Con from 5.55305e-006 to 5.55305e-006
Heightened Def Con from 5.55305e-006 to 5.55305e-006
Heightened Def Con from 5.55305e-006 to 5.55305e-006
Heightened Def Con from 5.55305e-006 to 5.55305e-006
Heightened Def Con from 5.55305e-006 to 5.55305e-006
Heightened Def Con from 5.55305e-006 to 5.55305e-006
Heightened Def Con from 5.55305e-006 to 5.55305e-006
Heightened Def Con from 5.55305e-006 to 5.55305e-006
Heightened Def Con from 5.55305e-006 to 5.55305e-006
Heightened Def Con from 5.55305e-006 to 5.55306e-006
Heightened Def Con from 5.55306e-006 to 5.55306e-006
Heightened Def Con from 5.55306e-006 to 5.55306e-006
Heightened Def Con from 5.55306e-006 to 5.55306e-006
Heightened Def Con from 5.55306e-006 to 5.55306e-006
Heightened Def Con from 5.55306e-006 to 5.55306e-006
Heightened Def Con from 5.55306e-006 to 5.55306e-006
Heightened Def Con from 5.55306e-006 to 5.55306e-006
Heightened Def Con from 5.55306e-006 to 5.55306e-006
Heightened Def Con from 5.55306e-006 to 5.55306e-006
Heightened Def Con from 5.55306e-006 to 5.55306e-006
Heightened Def Con from 5.55306e-006 to 5.55306e-006
Heightened Def Con from 5.55306e-006 to 5.55306e-006
Heightened Def Con from 5.55306e-006 to 5.55306e-006
Heightened Def Con from 5.55306e-006 to 5.55306e-006
Heightened Def Con from 5.55306e-006 to 5.55307e-006
Heightened Def Con from 5.55307e-006 to 5.55307e-006
Heightened Def Con from 5.55307e-006 to 5.55307e-006
Heightened Def Con from 5.55307e-006 to 5.55307e-006
Heightened Def Con from 5.55307e-006 to 5.55307e-006
Heightened Def Con from 5.55307e-006 to 5.55307e-006
Heightened Def Con from 5.55307e-006 to 5.55307e-006
Heightened Def Con from 5.55307e-006 to 5.55307e-006
Heightened Def Con from 5.55307e-006 to 5.55307e-006
Heightened Def Con from 5.55307e-006 to 5.55307e-006
Heightened Def Con from 5.55307e-006 to 5.55307e-006
Heightened Def Con from 5.55307e-006 to 5.55307e-006
Heightened Def Con from 5.55307e-006 to 5.55307e-006
Heightened Def Con from 5.55307e-006 to 5.55307e-006
Heightened Def Con from 5.55307e-006 to 5.55307e-006
Heightened Def Con from 5.55307e-006 to 5.55307e-006
Heightened Def Con from 5.55307e-006 to 5.55307e-006
Heightened Def Con from 5.55307e-006 to 5.55307e-006
Heightened Def Con from 5.55307e-006 to 5.55307e-006
Heightened Def Con from 5.55307e-006 to 5.55307e-006
Heightened Def Con from 5.55307e-006 to 5.55307e-006
Heightened Def Con from 5.55307e-006 to 5.55307e-006
Heightened Def Con from 5.55307e-006 to 5.55307e-006
Heightened Def Con from 5.55307e-006 to 5.55307e-006
Heightened Def Con from 5.55307e-006 to 5.55307e-006
Heightened Def Con from 5.55307e-006 to 5.55307e-006
Heightened Def Con from 5.55307e-006 to 5.55307e-006
Heightened Def Con from 5.55307e-006 to 5.55307e-006
Heightened Def Con from 5.55307e-006 to 5.55307e-006
Heightened Def Con from 5.55307e-006 to 5.55307e-006
Heightened Def Con from 5.55307e-006 to 5.55307e-006
Heightened Def Con from 5.55307e-006 to 5.55307e-006
Heightened Def Con from 5.55307e-006 to 5.55308e-006
Heightened Def Con from 5.55308e-006 to 5.55308e-006
Heightened Def Con from 5.55308e-006 to 5.55308e-006
Heightened Def Con from 5.55308e-006 to 5.55308e-006
Heightened Def Con from 5.55308e-006 to 5.55308e-006
Heightened Def Con from 5.55308e-006 to 5.55308e-006
Heightened Def Con from 5.55308e-006 to 5.55308e-006
Heightened Def Con from 5.55308e-006 to 5.55308e-006
Heightened Def Con from 5.55308e-006 +to 5.55308e-006
Heightened Def Con from 5.55308e-006 to 5.55308e-006
Heightened Def Con from 5.55308e-006 to 5.55308e-006
Heightened Def Con from 5.55308e-006 to 5.55308e-006
Heightened Def Con from 5.55308e-006 to 5.55308e-006
Heightened Def Con from 5.55308e-006 to 5.55308e-006
Heightened Def Con from 5.55308e-006 to 5.55308e-006
Heightened Def Con from 5.55308e-006 to 5.55308e-006
Heightened Def Con from 5.55308e-006 to 5.55308e-006
Heightened Def Con from 5.55308e-006 to 5.55308e-006
Heightened Def Con from 5.55308e-006 to 5.55308e-006
Heightened Def Con from 5.55308e-006 to 5.55308e-006
Heightened Def Con from 5.55308e-006 to 5.55308e-006
Heightened Def Con from 5.55308e-006 to 5.55308e-006
Heightened Def Con from 5.55308e-006 to 5.55308e-006
Heightened Def Con from 5.55308e-006 to 5.55308e-006
Heightened Def Con from 5.55308e-006 to 5.55308e-006
Heightened Def Con from 5.55308e-006 to 5.55308e-006
Heightened Def Con from 5.55308e-006 to 5.55309e-006
Heightened Def Con from 5.55309e-006 to 5.55309e-006
Heightened Def Con from 5.55309e-006 to 5.55309e-006
Heightened Def Con from 5.55309e-006 to 5.55309e-006
Heightened Def Con from 5.55309e-006 to 5.55309e-006
Heightened Def Con from 5.55309e-006 to 5.55309e-006
Heightened Def Con from 5.55309e-006 to 5.55309e-006
Heightened Def Con from 5.55309e-006 to 5.55309e-006
Heightened Def Con from 5.55309e-006 to 5.55309e-006
Heightened Def Con from 5.55309e-006 to 5.55309e-006
Heightened Def Con from 5.55309e-006 to 5.55309e-006
Heightened Def Con from 5.55309e-006 to 5.55309e-006
Heightened Def Con from 5.55309e-006 to 5.55309e-006
Heightened Def Con from 5.55309e-006 to 5.55309e-006
Heightened Def Con from 5.55309e-006 to 5.55309e-006
Heightened Def Con from 5.55309e-006 to 5.55309e-006
Heightened Def Con from 5.55309e-006 to 5.55309e-006
Heightened Def Con from 5.55309e-006 to 5.55309e-006
Heightened Def Con from 5.55309e-006 to 5.55309e-006
Heightened Def Con from 5.55309e-006 to 5.55309e-006
Heightened Def Con from 5.55309e-006 to 5.55309e-006
Heightened Def Con from 5.55309e-006 to 5.55309e-006
Heightened Def Con from 5.55309e-006 to 5.55309e-006
Heightened Def Con from 5.55309e-006 to 5.55309e-006
Heightened Def Con from 5.55309e-006 to 5.55309e-006
Heightened Def Con from 5.55309e-006 to 5.55309e-006
Heightened Def Con from 5.55309e-006 to 5.5531e-006
Heightened Def Con from 5.5531e-006 to 5.5531e-006
Heightened Def Con from 5.5531e-006 to 5.5531e-006
Heightened Def Con from 5.5531e-006 to 5.5531e-006
Heightened Def Con from 5.5531e-006 to 5.5531e-006
Heightened Def Con from 5.5531e-006 to 5.5531e-006
Heightened Def Con from 5.5531e-006 to 5.5531e-006
Heightened Def Con from 5.5531e-006 to 5.5531e-006
Heightened Def Con from 5.5531e-006 to 5.5531e-006
Heightened Def Con from 5.5531e-006 to 5.5531e-006
Heightened Def Con from 5.5531e-006 to 5.5531e-006
Heightened Def Con from 5.5531e-006 to 5.5531e-006
Heightened Def Con from 5.5531e-006 to 5.5531e-006
Heightened Def Con from 5.5531e-006 to 5.5531e-006
Heightened Def Con from 5.5531e-006 to 5.5531e-006
Heightened Def Con from 5.5531e-006 to 5.5531e-006
Heightened Def Con from 5.5531e-006 to 5.5531e-006
Heightened Def Con from 5.5531e-006 to 5.5531e-006
Heightened Def Con from 5.5531e-006 to 5.5531e-006
Heightened Def Con from 5.5531e-006 to 5.5531e-006
Heightened Def Con from 5.5531e-006 to 5.5531e-006
Heightened Def Con from 5.5531e-006 to 5.5531e-006
Heightened Def Con from 5.5531e-006 to 5.5531e-006
Heightened Def Con from 5.5531e-006 to 5.5531e-006
Heightened Def Con from 5.5531e-006 to 5.5531e-006
Heightened Def Con from 5.5531e-006 to 5.5531e-006
Heightened Def Con from 5.5531e-006 to 5.5531e-006
Heightened Def Con from 5.5531e-006 to 5.5531e-006
Heightened Def Con from 5.5531e-006 to 5.5531e-006
Heightened Def Con from 5.5531e-006 to 5.5531e-006
Heightened Def Con from 5.5531e-006 to 5.5531e-006
Heightened Def Con from 5.5531e-006 to 5.5531e-006
Heightened Def Con from 5.5531e-006 to 5.5531e-006
Heightened Def Con from 5.5531e-006 to 5.5531e-006
Heightened Def Con from 5.5531e-006 to 5.5531e-006
Heightened Def Con from 5.5531e-006 to 5.5531e-006
Heightened Def Con from 5.5531e-006 to 5.5531e-006
Heightened Def Con from 5.5531e-006 to 5.5531e-006
Heightened Def Con from 5.5531e-006 to 5.5531e-006
Heightened Def Con from 5.5531e-006 to 5.5531e-006
Heightened Def Con from 5.5531e-006 to 5.5531e-006
Heightened Def Con from 5.5531e-006 +to 5.55311e-006
Heightened Def Con from 5.55311e-006 to 5.55311e-006
Heightened Def Con from 5.55311e-006 to 5.55311e-006
Heightened Def Con from 5.55311e-006 to 5.55311e-006
Heightened Def Con from 5.55311e-006 to 5.55311e-006
Heightened Def Con from 5.55311e-006 to 5.55311e-006
Heightened Def Con from 5.55311e-006 to 5.55311e-006
Heightened Def Con from 5.55311e-006 to 5.55311e-006
Heightened Def Con from 5.55311e-006 to 5.55311e-006
Heightened Def Con from 5.55311e-006 to 5.55311e-006
Heightened Def Con from 5.55311e-006 to 5.55311e-006
Heightened Def Con from 5.55311e-006 to 5.55311e-006
Heightened Def Con from 5.55311e-006 to 5.55311e-006
Heightened Def Con from 5.55311e-006 to 5.55311e-006
Heightened Def Con from 5.55311e-006 to 5.55311e-006
Heightened Def Con from 5.55311e-006 to 5.55311e-006
Heightened Def Con from 5.55311e-006 to 5.55311e-006
Heightened Def Con from 5.55311e-006 to 5.55311e-006
Heightened Def Con from 5.55311e-006 to 5.55311e-006
Heightened Def Con from 5.55311e-006 to 5.55311e-006
Heightened Def Con from 5.55311e-006 to 5.55311e-006
Heightened Def Con from 5.55311e-006 to 5.55311e-006
Heightened Def Con from 5.55311e-006 to 5.55311e-006
Heightened Def Con from 5.55311e-006 to 5.55311e-006
Heightened Def Con from 5.55311e-006 to 5.55311e-006
Heightened Def Con from 5.55311e-006 to 5.55311e-006
Heightened Def Con from 5.55311e-006 to 5.55311e-006
Heightened Def Con from 5.55311e-006 to 5.55311e-006
Heightened Def Con from 5.55311e-006 to 5.55311e-006
Heightened Def Con from 5.55311e-006 to 5.55311e-006
Heightened Def Con from 5.55311e-006 to 5.55311e-006
Heightened Def Con from 5.55311e-006 to 5.55311e-006
Heightened Def Con from 5.55311e-006 to 5.55311e-006
Heightened Def Con from 5.55311e-006 to 5.55311e-006
Heightened Def Con from 5.55311e-006 +to 5.55312e-006
Heightened Def Con from 5.55312e-006 to 5.55312e-006
Heightened Def Con from 5.55312e-006 to 5.55312e-006
Heightened Def Con from 5.55312e-006 to 5.55312e-006
Heightened Def Con from 5.55312e-006 to 5.55312e-006
Heightened Def Con from 5.55312e-006 to 5.55312e-006
Heightened Def Con from 5.55312e-006 to 5.55312e-006
Heightened Def Con from 5.55312e-006 to 5.55312e-006
Heightened Def Con from 5.55312e-006 to 5.55312e-006
Heightened Def Con from 5.55312e-006 +to 5.55312e-006
Heightened Def Con from 5.55312e-006 to 5.55312e-006
Heightened Def Con from 5.55312e-006 to 5.55312e-006
Heightened Def Con from 5.55312e-006 to 5.55312e-006
Heightened Def Con from 5.55312e-006 to 5.55312e-006
Heightened Def Con from 5.55312e-006 to 5.55312e-006
Heightened Def Con from 5.55312e-006 to 5.55312e-006
Heightened Def Con from 5.55312e-006 to 5.55312e-006
Heightened Def Con from 5.55312e-006 to 5.55312e-006
Heightened Def Con from 5.55312e-006 to 5.55312e-006
Heightened Def Con from 5.55312e-006 to 5.55312e-006
Heightened Def Con from 5.55312e-006 to 5.55312e-006
Heightened Def Con from 5.55312e-006 +to 5.55312e-006
Heightened Def Con from 5.55312e-006 to 5.55312e-006
Heightened Def Con from 5.55312e-006 to 5.55312e-006
Heightened Def Con from 5.55312e-006 to 5.55312e-006
Heightened Def Con from 5.55312e-006 to 5.55312e-006
Heightened Def Con from 5.55312e-006 to 5.55312e-006
Heightened Def Con from 5.55312e-006 to 5.55312e-006
Heightened Def Con from 5.55312e-006 to 5.55312e-006
Heightened Def Con from 5.55312e-006 to 5.55312e-006
Heightened Def Con from 5.55312e-006 to 5.55312e-006
Heightened Def Con from 5.55312e-006 +to 5.55312e-006
Heightened Def Con from 5.55312e-006 to 5.55312e-006
Heightened Def Con from 5.55312e-006 to 5.55312e-006
Heightened Def Con from 5.55312e-006 to 5.55312e-006
Heightened Def Con from 5.55312e-006 to 5.55312e-006
Heightened Def Con from 5.55312e-006 to 5.55312e-006
Heightened Def Con from 5.55312e-006 to 5.55312e-006
Heightened Def Con from 5.55312e-006 to 5.55312e-006
Heightened Def Con from 5.55312e-006 to 5.55312e-006
Heightened Def Con from 5.55312e-006 to 5.55312e-006
Heightened Def Con from 5.55312e-006 to 5.55312e-006
Heightened Def Con from 5.55312e-006 to 5.55312e-006
Heightened Def Con from 5.55312e-006 to 5.55312e-006
Heightened Def Con from 5.55312e-006 to 5.55312e-006
Heightened Def Con from 5.55312e-006 to 5.55312e-006
Heightened Def Con from 5.55312e-006 to 5.55312e-006
Heightened Def Con from 5.55312e-006 to 5.55312e-006
Heightened Def Con from 5.55312e-006 to 5.55312e-006
Heightened Def Con from 5.55312e-006 to 5.55312e-006
Heightened Def Con from 5.55312e-006 to 5.55312e-006
Heightened Def Con from 5.55312e-006 to 5.55312e-006
Heightened Def Con from 5.55312e-006 to 5.55312e-006
Heightened Def Con from 5.55312e-006 +to 5.55312e-006
Heightened Def Con from 5.55312e-006 to 5.55312e-006
Heightened Def Con from 5.55312e-006 +to 5.55312e-006
Heightened Def Con from 5.55312e-006 to 5.55312e-006
Heightened Def Con from 5.55312e-006 to 5.55312e-006
Heightened Def Con from 5.55312e-006 to 5.55313e-006
Heightened Def Con from 5.55313e-006 to 5.55313e-006
Heightened Def Con from 5.55313e-006 +to 5.55313e-006
Heightened Def Con from 5.55313e-006 to 5.55313e-006
Heightened Def Con from 5.55313e-006 to 5.55313e-006
Heightened Def Con from 5.55313e-006 to 5.55313e-006
Heightened Def Con from 5.55313e-006 to 5.55313e-006
Heightened Def Con from 5.55313e-006 to 5.55313e-006
Heightened Def Con from 5.55313e-006 to 5.55313e-006
Heightened Def Con from 5.55313e-006 to 5.55313e-006
Heightened Def Con from 5.55313e-006 to 5.55313e-006
Heightened Def Con from 5.55313e-006 to 5.55313e-006
Heightened Def Con from 5.55313e-006 +to 5.55313e-006
Heightened Def Con from 5.55313e-006 to 5.55313e-006
Heightened Def Con from 5.55313e-006 to 5.55313e-006
Heightened Def Con from 5.55313e-006 to 5.55313e-006
Heightened Def Con from 5.55313e-006 to 5.55313e-006
Heightened Def Con from 5.55313e-006 to 5.55313e-006
Heightened Def Con from 5.55313e-006 to 5.55313e-006
Heightened Def Con from 5.55313e-006 to 5.55313e-006
Heightened Def Con from 5.55313e-006 to 5.55313e-006
Heightened Def Con from 5.55313e-006 to 5.55313e-006
Heightened Def Con from 5.55313e-006 to 5.55313e-006
Heightened Def Con from 5.55313e-006 to 5.55313e-006
Heightened Def Con from 5.55313e-006 to 5.55313e-006
Heightened Def Con from 5.55313e-006 to 5.55313e-006
Heightened Def Con from 5.55313e-006 to 5.55313e-006
Heightened Def Con from 5.55313e-006 to 5.55313e-006
Heightened Def Con from 5.55313e-006 to 5.55313e-006
Heightened Def Con from 5.55313e-006 to 5.55313e-006
Heightened Def Con from 5.55313e-006 to 5.55313e-006
Heightened Def Con from 5.55313e-006 to 5.55313e-006
Heightened Def Con from 5.55313e-006 to 5.55313e-006
Heightened Def Con from 5.55313e-006 to 5.55313e-006
Heightened Def Con from 5.55313e-006 +to 5.55314e-006
Heightened Def Con from 5.55314e-006 to 5.55314e-006
Heightened Def Con from 5.55314e-006 to 5.55314e-006
Heightened Def Con from 5.55314e-006 to 5.55314e-006
Heightened Def Con from 5.55314e-006 to 5.55314e-006
Heightened Def Con from 5.55314e-006 to 5.55314e-006
Heightened Def Con from 5.55314e-006 to 5.55314e-006
Heightened Def Con from 5.55314e-006 to 5.55314e-006
Heightened Def Con from 5.55314e-006 to 5.55314e-006
Heightened Def Con from 5.55314e-006 to 5.55314e-006
Heightened Def Con from 5.55314e-006 to 5.55314e-006
Heightened Def Con from 5.55314e-006 to 5.55314e-006
Heightened Def Con from 5.55314e-006 to 5.55314e-006
Heightened Def Con from 5.55314e-006 to 5.55314e-006
Heightened Def Con from 5.55314e-006 to 5.55314e-006
Heightened Def Con from 5.55314e-006 to 5.55314e-006
Heightened Def Con from 5.55314e-006 to 5.55314e-006
Heightened Def Con from 5.55314e-006 to 5.55314e-006
Heightened Def Con from 5.55314e-006 to 5.55314e-006
Heightened Def Con from 5.55314e-006 to 5.55314e-006
Heightened Def Con from 5.55314e-006 to 5.55314e-006
Heightened Def Con from 5.55314e-006 to 5.55314e-006
Heightened Def Con from 5.55314e-006 to 5.55314e-006
Heightened Def Con from 5.55314e-006 to 5.55314e-006
Heightened Def Con from 5.55314e-006 to 5.55314e-006
Heightened Def Con from 5.55314e-006 to 5.55314e-006
Heightened Def Con from 5.55314e-006 to 5.55314e-006
Heightened Def Con from 5.55314e-006 to 5.55314e-006
Heightened Def Con from 5.55314e-006 to 5.55314e-006
Heightened Def Con from 5.55314e-006 to 5.55314e-006
Heightened Def Con from 5.55314e-006 to 5.55314e-006
Heightened Def Con from 5.55314e-006 to 5.55314e-006
Heightened Def Con from 5.55314e-006 to 5.55314e-006
Heightened Def Con from 5.55314e-006 to 5.55314e-006
Heightened Def Con from 5.55314e-006 to 5.55314e-006
Heightened Def Con from 5.55314e-006 to 5.55314e-006
Heightened Def Con from 5.55314e-006 to 5.55315e-006
Heightened Def Con from 5.55315e-006 to 5.55315e-006
Heightened Def Con from 5.55315e-006 to 5.55315e-006
Heightened Def Con from 5.55315e-006 to 5.55315e-006
Heightened Def Con from 5.55315e-006 +to 5.55315e-006
Heightened Def Con from 5.55315e-006 to 5.55315e-006
Heightened Def Con from 5.55315e-006 to 5.55315e-006
Heightened Def Con from 5.55315e-006 to 5.55315e-006
Heightened Def Con from 5.55315e-006 to 5.55315e-006
Heightened Def Con from 5.55315e-006 to 5.55315e-006
Heightened Def Con from 5.55315e-006 to 5.55315e-006
Heightened Def Con from 5.55315e-006 to 5.55315e-006
Heightened Def Con from 5.55315e-006 to 5.55315e-006
Heightened Def Con from 5.55315e-006 to 5.55315e-006
Heightened Def Con from 5.55315e-006 to 5.55315e-006
Heightened Def Con from 5.55315e-006 to 5.55315e-006
Heightened Def Con from 5.55315e-006 to 5.55315e-006
Heightened Def Con from 5.55315e-006 to 5.55315e-006
Heightened Def Con from 5.55315e-006 +to 5.55315e-006
Heightened Def Con from 5.55315e-006 +to 5.55315e-006
Heightened Def Con from 5.55315e-006 to 5.55315e-006
Heightened Def Con from 5.55315e-006 to 5.55315e-006
Heightened Def Con from 5.55315e-006 to 5.55315e-006
Heightened Def Con from 5.55315e-006 to 5.55315e-006
Heightened Def Con from 5.55315e-006 to 5.55315e-006
Heightened Def Con from 5.55315e-006 to 5.55315e-006
Heightened Def Con from 5.55315e-006 to 5.55315e-006
Heightened Def Con from 5.55315e-006 to 5.55315e-006
Heightened Def Con from 5.55315e-006 to 5.55315e-006
Heightened Def Con from 5.55315e-006 to 5.55315e-006
Heightened Def Con from 5.55315e-006 to 5.55315e-006
Heightened Def Con from 5.55315e-006 to 5.55315e-006
Heightened Def Con from 5.55315e-006 to 5.55315e-006
Heightened Def Con from 5.55315e-006 to 5.55315e-006
Heightened Def Con from 5.55315e-006 to 5.55315e-006
Heightened Def Con from 5.55315e-006 to 5.55315e-006
Heightened Def Con from 5.55315e-006 to 5.55315e-006
Heightened Def Con from 5.55315e-006 to 5.55315e-006
Heightened Def Con from 5.55315e-006 to 5.55315e-006
Heightened Def Con from 5.55315e-006 +to 5.55315e-006
Heightened Def Con from 5.55315e-006 to 5.55315e-006
Heightened Def Con from 5.55315e-006 to 5.55315e-006
Heightened Def Con from 5.55315e-006 to 5.55315e-006
Heightened Def Con from 5.55315e-006 to 5.55315e-006
Heightened Def Con from 5.55315e-006 to 5.55315e-006
Heightened Def Con from 5.55315e-006 to 5.55315e-006
Heightened Def Con from 5.55315e-006 to 5.55315e-006
Heightened Def Con from 5.55315e-006 to 5.55316e-006
Heightened Def Con from 5.55316e-006 to 5.55316e-006
Heightened Def Con from 5.55316e-006 to 5.55316e-006
Heightened Def Con from 5.55316e-006 to 5.55316e-006
Heightened Def Con from 5.55316e-006 to 5.55316e-006
Heightened Def Con from 5.55316e-006 to 5.55316e-006
Heightened Def Con from 5.55316e-006 to 5.55316e-006
Heightened Def Con from 5.55316e-006 to 5.55316e-006
Heightened Def Con from 5.55316e-006 to 5.55316e-006
Heightened Def Con from 5.55316e-006 to 5.55316e-006
Heightened Def Con from 5.55316e-006 to 5.55316e-006
Heightened Def Con from 5.55316e-006 to 5.55316e-006
Heightened Def Con from 5.55316e-006 to 5.55316e-006
Heightened Def Con from 5.55316e-006 to 5.55316e-006
Heightened Def Con from 5.55316e-006 to 5.55316e-006
Heightened Def Con from 5.55316e-006 to 5.55316e-006
Heightened Def Con from 5.55316e-006 to 5.55316e-006
Heightened Def Con from 5.55316e-006 to 5.55316e-006
Heightened Def Con from 5.55316e-006 to 5.55316e-006
Heightened Def Con from 5.55316e-006 to 5.55316e-006
Heightened Def Con from 5.55316e-006 to 5.55316e-006
Heightened Def Con from 5.55316e-006 to 5.55316e-006
Heightened Def Con from 5.55316e-006 to 5.55316e-006
Heightened Def Con from 5.55316e-006 to 5.55316e-006
Heightened Def Con from 5.55316e-006 to 5.55316e-006
Heightened Def Con from 5.55316e-006 to 5.55316e-006
Heightened Def Con from 5.55316e-006 to 5.55316e-006
Heightened Def Con from 5.55316e-006 to 5.55316e-006
Heightened Def Con from 5.55316e-006 to 5.55316e-006
Heightened Def Con from 5.55316e-006 to 5.55316e-006
Heightened Def Con from 5.55316e-006 to 5.55316e-006
Heightened Def Con from 5.55316e-006 to 5.55316e-006
Heightened Def Con from 5.55316e-006 to 5.55316e-006
Heightened Def Con from 5.55316e-006 to 5.55316e-006
Heightened Def Con from 5.55316e-006 to 5.55316e-006
Heightened Def Con from 5.55316e-006 to 5.55316e-006
Heightened Def Con from 5.55316e-006 to 5.55316e-006
Heightened Def Con from 5.55316e-006 to 5.55316e-006
Heightened Def Con from 5.55316e-006 to 5.55316e-006
Heightened Def Con from 5.55316e-006 to 5.55316e-006
Heightened Def Con from 5.55316e-006 to 5.55317e-006
Heightened Def Con from 5.55317e-006 to 5.55317e-006
Heightened Def Con from 5.55317e-006 to 5.55317e-006
Heightened Def Con from 5.55317e-006 to 5.55317e-006
Heightened Def Con from 5.55317e-006 to 5.55317e-006
Heightened Def Con from 5.55317e-006 to 5.55317e-006
Heightened Def Con from 5.55317e-006 to 5.55317e-006
Heightened Def Con from 5.55317e-006 to 5.55317e-006
Heightened Def Con from 5.55317e-006 to 5.55317e-006
Heightened Def Con from 5.55317e-006 to 5.55317e-006
Heightened Def Con from 5.55317e-006 to 5.55317e-006
Heightened Def Con from 5.55317e-006 to 5.55317e-006
Heightened Def Con from 5.55317e-006 to 5.55317e-006
Heightened Def Con from 5.55317e-006 to 5.55317e-006
Heightened Def Con from 5.55317e-006 to 5.55317e-006
Heightened Def Con from 5.55317e-006 to 5.55317e-006
Heightened Def Con from 5.55317e-006 to 5.55317e-006
Heightened Def Con from 5.55317e-006 to 5.55317e-006
Heightened Def Con from 5.55317e-006 to 5.55317e-006
Heightened Def Con from 5.55317e-006 to 5.55317e-006
Heightened Def Con from 5.55317e-006 to 5.55317e-006
Heightened Def Con from 5.55317e-006 to 5.55317e-006
Heightened Def Con from 5.55317e-006 to 5.55317e-006
Heightened Def Con from 5.55317e-006 to 5.55317e-006
Heightened Def Con from 5.55317e-006 to 5.55317e-006
Heightened Def Con from 5.55317e-006 to 5.55318e-006
Heightened Def Con from 5.55318e-006 to 5.55318e-006
Heightened Def Con from 5.55318e-006 to 5.55318e-006
Heightened Def Con from 5.55318e-006 to 5.55318e-006
Heightened Def Con from 5.55318e-006 to 5.55318e-006
Heightened Def Con from 5.55318e-006 to 5.55318e-006
Heightened Def Con from 5.55318e-006 to 5.55318e-006
Heightened Def Con from 5.55318e-006 to 5.55318e-006
Heightened Def Con from 5.55318e-006 to 5.55318e-006
Heightened Def Con from 5.55318e-006 to 5.55318e-006
Heightened Def Con from 5.55318e-006 +to 5.55318e-006
Heightened Def Con from 5.55318e-006 to 5.55318e-006
Heightened Def Con from 5.55318e-006 to 5.55318e-006
Heightened Def Con from 5.55318e-006 ++to 5.55318e-006
Heightened Def Con from 5.55318e-006 to 5.55318e-006
Heightened Def Con from 5.55318e-006 to 5.55318e-006
Heightened Def Con from 5.55318e-006 to 5.55318e-006
Heightened Def Con from 5.55318e-006 to 5.55318e-006
Heightened Def Con from 5.55318e-006 to 5.55318e-006
Heightened Def Con from 5.55318e-006 to 5.55318e-006
Heightened Def Con from 5.55318e-006 to 5.55318e-006
Heightened Def Con from 5.55318e-006 to 5.55318e-006
Heightened Def Con from 5.55318e-006 +to 5.55318e-006
Heightened Def Con from 5.55318e-006 to 5.55318e-006
Heightened Def Con from 5.55318e-006 to 5.55318e-006
Heightened Def Con from 5.55318e-006 to 5.55318e-006
Heightened Def Con from 5.55318e-006 +to 5.55318e-006
Heightened Def Con from 5.55318e-006 to 5.55318e-006
Heightened Def Con from 5.55318e-006 to 5.55318e-006
Heightened Def Con from 5.55318e-006 to 5.55319e-006
Heightened Def Con from 5.55319e-006 to 5.55319e-006
Heightened Def Con from 5.55319e-006 to 5.55319e-006
Heightened Def Con from 5.55319e-006 to 5.55319e-006
Heightened Def Con from 5.55319e-006 to 5.55319e-006
Heightened Def Con from 5.55319e-006 to 5.55319e-006
Heightened Def Con from 5.55319e-006 to 5.55319e-006
Heightened Def Con from 5.55319e-006 to 5.55319e-006
Heightened Def Con from 5.55319e-006 to 5.55319e-006
Heightened Def Con from 5.55319e-006 to 5.55319e-006
Heightened Def Con from 5.55319e-006 to 5.55319e-006
Heightened Def Con from 5.55319e-006 to 5.55319e-006
Heightened Def Con from 5.55319e-006 to 5.55319e-006
Heightened Def Con from 5.55319e-006 to 5.55319e-006
Heightened Def Con from 5.55319e-006 to 5.55319e-006
Heightened Def Con from 5.55319e-006 to 5.55319e-006
Heightened Def Con from 5.55319e-006 to 5.55319e-006
Heightened Def Con from 5.55319e-006 to 5.55319e-006
Heightened Def Con from 5.55319e-006 to 5.55319e-006
Heightened Def Con from 5.55319e-006 to 5.55319e-006
Heightened Def Con from 5.55319e-006 to 5.55319e-006
Heightened Def Con from 5.55319e-006 to 5.55319e-006
Heightened Def Con from 5.55319e-006 to 5.55319e-006
Heightened Def Con from 5.55319e-006 to 5.55319e-006
Heightened Def Con from 5.55319e-006 to 5.55319e-006
Heightened Def Con from 5.55319e-006 to 5.55319e-006
Heightened Def Con from 5.55319e-006 to 5.55319e-006
Heightened Def Con from 5.55319e-006 +to 5.55319e-006
Heightened Def Con from 5.55319e-006 to 5.55319e-006
Heightened Def Con from 5.55319e-006 to 5.55319e-006
Heightened Def Con from 5.55319e-006 to 5.55319e-006
Heightened Def Con from 5.55319e-006 to 5.55319e-006
Heightened Def Con from 5.55319e-006 to 5.55319e-006
Heightened Def Con from 5.55319e-006 to 5.55319e-006
Heightened Def Con from 5.55319e-006 to 5.55319e-006
Heightened Def Con from 5.55319e-006 to 5.55319e-006
Heightened Def Con from 5.55319e-006 +to 5.55319e-006
Heightened Def Con from 5.55319e-006 to 5.5532e-006
Heightened Def Con from 5.5532e-006 to 5.5532e-006
Heightened Def Con from 5.5532e-006 to 5.5532e-006
Heightened Def Con from 5.5532e-006 to 5.5532e-006
Heightened Def Con from 5.5532e-006 to 5.5532e-006
Heightened Def Con from 5.5532e-006 to 5.5532e-006
Heightened Def Con from 5.5532e-006 to 5.5532e-006
Heightened Def Con from 5.5532e-006 to 5.5532e-006
Heightened Def Con from 5.5532e-006 to 5.5532e-006
Heightened Def Con from 5.5532e-006 to 5.5532e-006
Heightened Def Con from 5.5532e-006 to 5.5532e-006
Heightened Def Con from 5.5532e-006 to 5.5532e-006
Heightened Def Con from 5.5532e-006 to 5.5532e-006
Heightened Def Con from 5.5532e-006 to 5.5532e-006
Heightened Def Con from 5.5532e-006 to 5.5532e-006
Heightened Def Con from 5.5532e-006 to 5.5532e-006
Heightened Def Con from 5.5532e-006 to 5.5532e-006
Heightened Def Con from 5.5532e-006 to 5.5532e-006
Heightened Def Con from 5.5532e-006 +to 5.5532e-006
Heightened Def Con from 5.5532e-006 to 5.5532e-006
Heightened Def Con from 5.5532e-006 to 5.5532e-006
Heightened Def Con from 5.5532e-006 to 5.5532e-006
Heightened Def Con from 5.5532e-006 to 5.5532e-006
Heightened Def Con from 5.5532e-006 to 5.5532e-006
Heightened Def Con from 5.5532e-006 to 5.5532e-006
Heightened Def Con from 5.5532e-006 to 5.5532e-006
Heightened Def Con from 5.5532e-006 to 5.5532e-006
Heightened Def Con from 5.5532e-006 to 5.5532e-006
Heightened Def Con from 5.5532e-006 to 5.5532e-006
Heightened Def Con from 5.5532e-006 to 5.5532e-006
Heightened Def Con from 5.5532e-006 to 5.5532e-006
Heightened Def Con from 5.5532e-006 to 5.5532e-006
Heightened Def Con from 5.5532e-006 to 5.55321e-006
Heightened Def Con from 5.55321e-006 to 5.55321e-006
Heightened Def Con from 5.55321e-006 to 5.55321e-006
Heightened Def Con from 5.55321e-006 to 5.55321e-006
Heightened Def Con from 5.55321e-006 to 5.55321e-006
Heightened Def Con from 5.55321e-006 to 5.55321e-006
Heightened Def Con from 5.55321e-006 to 5.55321e-006
Heightened Def Con from 5.55321e-006 to 5.55321e-006
Heightened Def Con from 5.55321e-006 to 5.55321e-006
Heightened Def Con from 5.55321e-006 to 5.55321e-006
Heightened Def Con from 5.55321e-006 to 5.55321e-006
Heightened Def Con from 5.55321e-006 to 5.55321e-006
Heightened Def Con from 5.55321e-006 to 5.55321e-006
Heightened Def Con from 5.55321e-006 to 5.55321e-006
Heightened Def Con from 5.55321e-006 to 5.55321e-006
Heightened Def Con from 5.55321e-006 to 5.55321e-006
Heightened Def Con from 5.55321e-006 to 5.55321e-006
Heightened Def Con from 5.55321e-006 to 5.55321e-006
Heightened Def Con from 5.55321e-006 to 5.55321e-006
Heightened Def Con from 5.55321e-006 to 5.55321e-006
Heightened Def Con from 5.55321e-006 +to 5.55321e-006
Heightened Def Con from 5.55321e-006 to 5.55321e-006
Heightened Def Con from 5.55321e-006 to 5.55321e-006
Heightened Def Con from 5.55321e-006 to 5.55321e-006
Heightened Def Con from 5.55321e-006 to 5.55321e-006
Heightened Def Con from 5.55321e-006 to 5.55321e-006
Heightened Def Con from 5.55321e-006 to 5.55321e-006
Heightened Def Con from 5.55321e-006 to 5.55321e-006
Heightened Def Con from 5.55321e-006 to 5.55321e-006
Heightened Def Con from 5.55321e-006 to 5.55321e-006
Heightened Def Con from 5.55321e-006 to 5.55321e-006
Heightened Def Con from 5.55321e-006 to 5.55321e-006
Heightened Def Con from 5.55321e-006 to 5.55321e-006
Heightened Def Con from 5.55321e-006 to 5.55321e-006
Heightened Def Con from 5.55321e-006 to 5.55321e-006
Heightened Def Con from 5.55321e-006 to 5.55321e-006
Heightened Def Con from 5.55321e-006 to 5.55321e-006
Heightened Def Con from 5.55321e-006 to 5.55321e-006
Heightened Def Con from 5.55321e-006 to 5.55321e-006
Heightened Def Con from 5.55321e-006 to 5.55321e-006
Heightened Def Con from 5.55321e-006 to 5.55321e-006
Heightened Def Con from 5.55321e-006 to 5.55321e-006
Heightened Def Con from 5.55321e-006 to 5.55321e-006
Heightened Def Con from 5.55321e-006 to 5.55321e-006
Heightened Def Con from 5.55321e-006 to 5.55321e-006
Heightened Def Con from 5.55321e-006 to 5.55321e-006
Heightened Def Con from 5.55321e-006 to 5.55321e-006
Heightened Def Con from 5.55321e-006 to 5.55321e-006
Heightened Def Con from 5.55321e-006 to 5.55321e-006
Heightened Def Con from 5.55321e-006 to 5.55321e-006
Heightened Def Con from 5.55321e-006 to 5.55321e-006
Heightened Def Con from 5.55321e-006 to 5.55321e-006
Heightened Def Con from 5.55321e-006 to 5.55321e-006
Heightened Def Con from 5.55321e-006 to 5.55321e-006
Heightened Def Con from 5.55321e-006 to 5.55321e-006
Heightened Def Con from 5.55321e-006 to 5.55321e-006
Heightened Def Con from 5.55321e-006 to 5.55321e-006
Heightened Def Con from 5.55321e-006 to 5.55321e-006
Heightened Def Con from 5.55321e-006 to 5.55321e-006
Heightened Def Con from 5.55321e-006 to 5.55322e-006
Heightened Def Con from 5.55322e-006 to 5.55322e-006
Heightened Def Con from 5.55322e-006 to 5.55322e-006
Heightened Def Con from 5.55322e-006 to 5.55322e-006
Heightened Def Con from 5.55322e-006 to 5.55322e-006
Heightened Def Con from 5.55322e-006 to 5.55322e-006
Heightened Def Con from 5.55322e-006 to 5.55322e-006
Heightened Def Con from 5.55322e-006 to 5.55322e-006
Heightened Def Con from 5.55322e-006 +to 5.55322e-006
Heightened Def Con from 5.55322e-006 to 5.55322e-006
Heightened Def Con from 5.55322e-006 to 5.55322e-006
Heightened Def Con from 5.55322e-006 to 5.55322e-006
Heightened Def Con from 5.55322e-006 to 5.55322e-006
Heightened Def Con from 5.55322e-006 to 5.55322e-006
Heightened Def Con from 5.55322e-006 to 5.55322e-006
Heightened Def Con from 5.55322e-006 to 5.55322e-006
Heightened Def Con from 5.55322e-006 to 5.55322e-006
Heightened Def Con from 5.55322e-006 to 5.55322e-006
Heightened Def Con from 5.55322e-006 to 5.55322e-006
Heightened Def Con from 5.55322e-006 to 5.55322e-006
Heightened Def Con from 5.55322e-006 to 5.55322e-006
Heightened Def Con from 5.55322e-006 to 5.55322e-006
Heightened Def Con from 5.55322e-006 to 5.55322e-006
Heightened Def Con from 5.55322e-006 to 5.55322e-006
Heightened Def Con from 5.55322e-006 to 5.55322e-006
Heightened Def Con from 5.55322e-006 to 5.55322e-006
Heightened Def Con from 5.55322e-006 to 5.55322e-006
Heightened Def Con from 5.55322e-006 to 5.55322e-006
Heightened Def Con from 5.55322e-006 to 5.55322e-006
Heightened Def Con from 5.55322e-006 to 5.55322e-006
Heightened Def Con from 5.55322e-006 to 5.55322e-006
Heightened Def Con from 5.55322e-006 to 5.55323e-006
Heightened Def Con from 5.55323e-006 to 5.55323e-006
Heightened Def Con from 5.55323e-006 to 5.55323e-006
Heightened Def Con from 5.55323e-006 to 5.55323e-006
Heightened Def Con from 5.55323e-006 to 5.55323e-006
Heightened Def Con from 5.55323e-006 to 5.55323e-006
Heightened Def Con from 5.55323e-006 to 5.55323e-006
Heightened Def Con from 5.55323e-006 to 5.55323e-006
Heightened Def Con from 5.55323e-006 to 5.55323e-006
Heightened Def Con from 5.55323e-006 to 5.55323e-006
Heightened Def Con from 5.55323e-006 to 5.55323e-006
Heightened Def Con from 5.55323e-006 to 5.55323e-006
Heightened Def Con from 5.55323e-006 to 5.55323e-006
Heightened Def Con from 5.55323e-006 +to 5.55323e-006
Heightened Def Con from 5.55323e-006 to 5.55323e-006
Heightened Def Con from 5.55323e-006 to 5.55323e-006
Heightened Def Con from 5.55323e-006 to 5.55323e-006
[...]
Heightened Def Con from 3.55581e-005 to 3.55581e-005
Heightened Def Con from 3.55581e-005 to 3.55581e-005
Heightened Def Con from 3.55581e-005 +to 3.55581e-005
Heightened Def Con from 3.55581e-005 to 3.55581e-005
Heightened Def Con from 3.55581e-005 to 3.55581e-005
Heightened Def Con from 3.55581e-005 to 3.55581e-005
Heightened Def Con from 3.55581e-005 to 3.55581e-005
Heightened Def Con from 3.55581e-005 to 3.55581e-005
Heightened Def Con from 3.55581e-005 to 3.55581e-005
Heightened Def Con from 3.55581e-005 to 3.55581e-005
Heightened Def Con from 3.55581e-005 to 3.55581e-005
Heightened Def Con from 3.55581e-005 to 3.55581e-005
Heightened Def Con from 3.55581e-005 to 3.55581e-005
Heightened Def Con from 3.55581e-005 to 3.55581e-005
Heightened Def Con from 3.55581e-005 to 3.55581e-005
Heightened Def Con from 3.55581e-005 to 3.55581e-005
Heightened Def Con from 3.55581e-005 to 3.55581e-005
Heightened Def Con from 3.55581e-005 to 3.55581e-005
Heightened Def Con from 3.55581e-005 to 3.55581e-005
Heightened Def Con from 3.55581e-005 to 3.55581e-005
Heightened Def Con from 3.55581e-005 to 3.55581e-005
Heightened Def Con from 3.55581e-005 to 3.55581e-005
Heightened Def Con from 3.55581e-005 +to 3.55581e-005
Heightened Def Con from 3.55581e-005 to 3.55581e-005
Heightened Def Con from 3.55581e-005 to 3.55581e-005
Heightened Def Con from 3.55581e-005 to 3.55581e-005
Heightened Def Con from 3.55581e-005 to 3.55581e-005
Heightened Def Con from 3.55581e-005 to 3.55581e-005
Heightened Def Con from 3.55581e-005 to 3.55581e-005
Heightened Def Con from 3.55581e-005 to 3.55581e-005
Heightened Def Con from 3.55581e-005 to 3.55581e-005
Heightened Def Con from 3.55581e-005 to 3.55581e-005
Heightened Def Con from 3.55581e-005 to 3.55581e-005
Heightened Def Con from 3.55581e-005 to 3.55581e-005
Heightened Def Con from 3.55581e-005 to 3.55581e-005
Heightened Def Con from 3.55581e-005 to 3.55581e-005
Heightened Def Con from 3.55581e-005 to 3.55581e-005
Heightened Def Con from 3.55581e-005 to 3.55581e-005
Heightened Def Con from 3.55581e-005 to 3.55581e-005
Heightened Def Con from 3.55581e-005 to 3.55581e-005
Heightened Def Con from 3.55581e-005 to 3.55581e-005
Heightened Def Con from 3.55581e-005 to 3.55581e-005
Heightened Def Con from 3.55581e-005 to 3.55581e-005
Heightened Def Con from 3.55581e-005 to 3.55581e-005
Heightened Def Con from 3.55581e-005 to 3.55581e-005
Heightened Def Con from 3.55581e-005 to 3.55581e-005
Heightened Def Con from 3.55581e-005 to 3.55581e-005
Heightened Def Con from 3.55581e-005 to 3.55581e-005
Heightened Def Con from 3.55581e-005 to 3.55581e-005
Heightened Def Con from 3.55581e-005 to 3.55581e-005
Heightened Def Con from 3.55581e-005 to 3.55581e-005
Heightened Def Con from 3.55581e-005 to 3.55581e-005
Heightened Def Con from 3.55581e-005 to 3.55581e-005
Heightened Def Con from 3.55581e-005 to 3.55581e-005
Heightened Def Con from 3.55581e-005 to 3.55581e-005
Heightened Def Con from 3.55581e-005 +to 3.55581e-005
Heightened Def Con from 3.55581e-005 +to 3.55581e-005
Heightened Def Con from 3.55581e-005 to 3.55581e-005
Heightened Def Con from 3.55581e-005 to 3.55581e-005
Heightened Def Con from 3.55581e-005 to 3.55581e-005
Heightened Def Con from 3.55581e-005 to 3.55581e-005
Heightened Def Con from 3.55581e-005 to 3.55581e-005
Heightened Def Con from 3.55581e-005 to 3.55581e-005
Heightened Def Con from 3.55581e-005 to 3.55581e-005
Heightened Def Con from 3.55581e-005 to 3.55581e-005
Heightened Def Con from 3.55581e-005 to 3.55581e-005
Heightened Def Con from 3.55581e-005 to 3.55581e-005
Heightened Def Con from 3.55581e-005 to 3.55581e-005
Heightened Def Con from 3.55581e-005 to 3.55581e-005
Heightened Def Con from 3.55581e-005 to 3.55581e-005
Heightened Def Con from 3.55581e-005 to 3.55581e-005
Heightened Def Con from 3.55581e-005 to 3.55581e-005
Heightened Def Con from 3.55581e-005 to 3.55581e-005
Heightened Def Con from 3.55581e-005 to 3.55581e-005
Heightened Def Con from 3.55581e-005 to 3.55581e-005
Heightened Def Con from 3.55581e-005 to 3.55581e-005
Heightened Def Con from 3.55581e-005 to 3.55581e-005
Heightened Def Con from 3.55581e-005 to 3.55581e-005
Heightened Def Con from 3.55581e-005 +to 3.55581e-005
Heightened Def Con from 3.55581e-005 to 3.55581e-005
Heightened Def Con from 3.55581e-005 +to 3.55581e-005
Heightened Def Con from 3.55581e-005 to 3.55581e-005
Heightened Def Con from 3.55581e-005 to 3.55581e-005
Heightened Def Con from 3.55581e-005 to 3.55581e-005
Heightened Def Con from 3.55581e-005 to 3.55581e-005
Heightened Def Con from 3.55581e-005 to 3.55581e-005
Heightened Def Con from 3.55581e-005 to 3.55581e-005
Heightened Def Con from 3.55581e-005 to 3.55581e-005
Heightened Def Con from 3.55581e-005 to 3.55581e-005
Heightened Def Con from 3.55581e-005 to 3.55581e-005
Heightened Def Con from 3.55581e-005 to 3.55581e-005
Heightened Def Con from 3.55581e-005 to 3.55581e-005
Heightened Def Con from 3.55581e-005 to 3.55581e-005
Heightened Def Con from 3.55581e-005 to 3.55581e-005
Heightened Def Con from 3.55581e-005 to 3.55581e-005
Heightened Def Con from 3.55581e-005 to 3.55581e-005
Heightened Def Con from 3.55581e-005 to 3.55581e-005
Heightened Def Con from 3.55581e-005 to 3.55581e-005
Heightened Def Con from 3.55581e-005 to 3.55581e-005
Heightened Def Con from 3.55581e-005 to 3.55581e-005
Heightened Def Con from 3.55581e-005 to 3.55581e-005
Heightened Def Con from 3.55581e-005 to 3.55581e-005
Heightened Def Con from 3.55581e-005 +to 3.55581e-005
Heightened Def Con from 3.55581e-005 to 3.55581e-005
Heightened Def Con from 3.55581e-005 to 3.55581e-005
Heightened Def Con from 3.55581e-005 to 3.55581e-005
Heightened Def Con from 3.55581e-005 to 3.55581e-005
Heightened Def Con from 3.55581e-005 to 3.55581e-005
Heightened Def Con from 3.55581e-005 to 3.55581e-005
Heightened Def Con from 3.55581e-005 +to 3.55581e-005
Heightened Def Con from 3.55581e-005 to 3.55581e-005
Heightened Def Con from 3.55581e-005 to 3.55581e-005
Heightened Def Con from 3.55581e-005 to 3.55581e-005
Heightened Def Con from 3.55581e-005 to 3.55581e-005
Heightened Def Con from 3.55581e-005 to 3.55581e-005
Heightened Def Con from 3.55581e-005 +to 3.55581e-005
Heightened Def Con from 3.55581e-005 to 3.55581e-005
Heightened Def Con from 3.55581e-005 to 3.55581e-005
Heightened Def Con from 3.55581e-005 to 3.55581e-005
Heightened Def Con from 3.55581e-005 to 3.55581e-005
Heightened Def Con from 3.55581e-005 to 3.55581e-005
Heightened Def Con from 3.55581e-005 to 3.55581e-005
Heightened Def Con from 3.55581e-005 to 3.55581e-005
Heightened Def Con from 3.55581e-005 to 3.55581e-005
Heightened Def Con from 3.55581e-005 to 3.55581e-005
Heightened Def Con from 3.55581e-005 to 3.55581e-005
Heightened Def Con from 3.55581e-005 to 3.55581e-005
Heightened Def Con from 3.55581e-005 to 3.55581e-005
Heightened Def Con from 3.55581e-005 to 3.55581e-005
Heightened Def Con from 3.55581e-005 to 3.55581e-005
Heightened Def Con from 3.55581e-005 to 3.55581e-005
Heightened Def Con from 3.55581e-005 to 3.55581e-005
Heightened Def Con from 3.55581e-005 to 3.55581e-005
Heightened Def Con from 3.55581e-005 to 3.55581e-005
Heightened Def Con from 3.55581e-005 to 3.55581e-005
Heightened Def Con from 3.55581e-005 to 3.55581e-005
Heightened Def Con from 3.55581e-005 to 3.55581e-005
Heightened Def Con from 3.55581e-005 to 3.55581e-005
Heightened Def Con from 3.55581e-005 +to 3.55581e-005
Heightened Def Con from 3.55581e-005 to 3.55581e-005
Heightened Def Con from 3.55581e-005 to 3.55581e-005
Heightened Def Con from 3.55581e-005 to 3.55581e-005
Heightened Def Con from 3.55581e-005 to 3.55581e-005
Heightened Def Con from 3.55581e-005 to 3.55581e-005
Heightened Def Con from 3.55581e-005 to 3.55581e-005
Heightened Def Con from 3.55581e-005 to 3.55581e-005
Heightened Def Con from 3.55581e-005 to 3.55581e-005
Heightened Def Con from 3.55581e-005 to 3.55581e-005
Heightened Def Con from 3.55581e-005 to 3.55581e-005
Heightened Def Con from 3.55581e-005 to 3.55581e-005
Heightened Def Con from 3.55581e-005 to 3.55581e-005
Heightened Def Con from 3.55581e-005 to 3.55581e-005
Heightened Def Con from 3.55581e-005 +to 3.55581e-005
Heightened Def Con from 3.55581e-005 to 3.55581e-005
Heightened Def Con from 3.55581e-005 to 3.55581e-005
Heightened Def Con from 3.55581e-005 to 3.55581e-005
Heightened Def Con from 3.55581e-005 to 3.55581e-005
Heightened Def Con from 3.55581e-005 to 3.55581e-005
Heightened Def Con from 3.55581e-005 to 3.55581e-005
Heightened Def Con from 3.55581e-005 to 3.55581e-005
Heightened Def Con from 3.55581e-005 to 3.55581e-005
Heightened Def Con from 3.55581e-005 to 3.55581e-005
Heightened Def Con from 3.55581e-005 to 3.55581e-005
Heightened Def Con from 3.55581e-005 to 3.55581e-005
Heightened Def Con from 3.55581e-005 to 3.55581e-005
Heightened Def Con from 3.55581e-005 to 3.55581e-005
Heightened Def Con from 3.55581e-005 to 3.55581e-005
Heightened Def Con from 3.55581e-005 to 3.55581e-005
Heightened Def Con from 3.55581e-005 to 3.55581e-005
Heightened Def Con from 3.55581e-005 to 3.55581e-005
Heightened Def Con from 3.55581e-005 to 3.55581e-005
Heightened Def Con from 3.55581e-005 to 3.55581e-005
Heightened Def Con from 3.55581e-005 to 3.55581e-005
Heightened Def Con from 3.55581e-005 to 3.55581e-005
Heightened Def Con from 3.55581e-005 to 3.55581e-005
Heightened Def Con from 3.55581e-005 to 3.55581e-005
Heightened Def Con from 3.55581e-005 to 3.55581e-005
Heightened Def Con from 3.55581e-005 to 3.55581e-005
Heightened Def Con from 3.55581e-005 to 3.55581e-005
Heightened Def Con from 3.55581e-005 to 3.55581e-005
Heightened Def Con from 3.55581e-005 to 3.55581e-005
Heightened Def Con from 3.55581e-005 to 3.55581e-005
Heightened Def Con from 3.55581e-005 to 3.55581e-005
Heightened Def Con from 3.55581e-005 to 3.55581e-005
Heightened Def Con from 3.55581e-005 to 3.55581e-005
Heightened Def Con from 3.55581e-005 to 3.55581e-005
Heightened Def Con from 3.55581e-005 to 3.55581e-005
Heightened Def Con from 3.55581e-005 to 3.55581e-005
Heightened Def Con from 3.55581e-005 to 3.55581e-005
Heightened Def Con from 3.55581e-005 to 3.55581e-005
Heightened Def Con from 3.55581e-005 to 3.55581e-005
Heightened Def Con from 3.55581e-005 to 3.55581e-005
Heightened Def Con from 3.55581e-005 to 3.55581e-005
Heightened Def Con from 3.55581e-005 to 3.55581e-005
Heightened Def Con from 3.55581e-005 to 3.55581e-005
Heightened Def Con from 3.55581e-005 to 3.55581e-005
Heightened Def Con from 3.55581e-005 to 3.55581e-005
Heightened Def Con from 3.55581e-005 to 3.55581e-005
Heightened Def Con from 3.55581e-005 to 3.55581e-005
Heightened Def Con from 3.55581e-005 to 3.55581e-005
Heightened Def Con from 3.55581e-005 to 3.55581e-005
Heightened Def Con from 3.55581e-005 to 3.55581e-005
Heightened Def Con from 3.55581e-005 to 3.55581e-005
Heightened Def Con from 3.55581e-005 to 3.55581e-005
Heightened Def Con from 3.55581e-005 to 3.55581e-005
Heightened Def Con from 3.55581e-005 to 3.55581e-005
Heightened Def Con from 3.55581e-005 to 3.55581e-005
Heightened Def Con from 3.55581e-005 to 3.55581e-005
Heightened Def Con from 3.55581e-005 to 3.55581e-005
Heightened Def Con from 3.55581e-005 to 3.55581e-005
Heightened Def Con from 3.55581e-005 to 3.55581e-005
Heightened Def Con from 3.55581e-005 to 3.55581e-005
Heightened Def Con from 3.55581e-005 to 3.55581e-005
Heightened Def Con from 3.55581e-005 to 3.55581e-005
Heightened Def Con from 3.55581e-005 to 3.55581e-005
Heightened Def Con from 3.55581e-005 to 3.55581e-005
Heightened Def Con from 3.55581e-005 to 3.55581e-005
Heightened Def Con from 3.55581e-005 to 3.55581e-005
Heightened Def Con from 3.55581e-005 to 3.55581e-005
Heightened Def Con from 3.55581e-005 to 3.55581e-005
Heightened Def Con from 3.55581e-005 to 3.55581e-005
Heightened Def Con from 3.55581e-005 to 3.55581e-005
Heightened Def Con from 3.55581e-005 to 3.55581e-005
Heightened Def Con from 3.55581e-005 to 3.55581e-005
Heightened Def Con from 3.55581e-005 to 3.55581e-005
Heightened Def Con from 3.55581e-005 to 3.55581e-005
Heightened Def Con from 3.55581e-005 to 3.55581e-005
Heightened Def Con from 3.55581e-005 to 3.55581e-005
Heightened Def Con from 3.55581e-005 to 3.55581e-005
Heightened Def Con from 3.55581e-005 to 3.55581e-005
Heightened Def Con from 3.55581e-005 to 3.55581e-005
Heightened Def Con from 3.55581e-005 to 3.55581e-005
Heightened Def Con from 3.55581e-005 to 3.55581e-005
Heightened Def Con from 3.55581e-005 to 3.55581e-005
Heightened Def Con from 3.55581e-005 to 3.55581e-005
Heightened Def Con from 3.55581e-005 to 3.55581e-005
Heightened Def Con from 3.55581e-005 to 3.55581e-005
Heightened Def Con from 3.55581e-005 to 3.55581e-005
Heightened Def Con from 3.55581e-005 to 3.55581e-005
Heightened Def Con from 3.55581e-005 to 3.55581e-005
Heightened Def Con from 3.55581e-005 to 3.55581e-005
Heightened Def Con from 3.55581e-005 +to 3.55581e-005
Heightened Def Con from 3.55581e-005 to 3.55581e-005
Heightened Def Con from 3.55581e-005 to 3.55581e-005
Heightened Def Con from 3.55581e-005 to 3.55581e-005
Heightened Def Con from 3.55581e-005 to 3.55581e-005
Heightened Def Con from 3.55581e-005 to 3.55581e-005
Heightened Def Con from 3.55581e-005 to 3.55581e-005
Heightened Def Con from 3.55581e-005 to 3.55581e-005
Heightened Def Con from 3.55581e-005 to 3.55581e-005
Heightened Def Con from 3.55581e-005 to 3.55581e-005
Heightened Def Con from 3.55581e-005 to 3.55581e-005
Heightened Def Con from 3.55581e-005 to 3.55581e-005
Heightened Def Con from 3.55581e-005 to 3.55581e-005
Heightened Def Con from 3.55581e-005 to 3.55581e-005
Heightened Def Con from 3.55581e-005 to 3.55581e-005
Heightened Def Con from 3.55581e-005 to 3.55581e-005
Heightened Def Con from 3.55581e-005 to 3.55581e-005
Heightened Def Con from 3.55581e-005 to 3.55581e-005
Heightened Def Con from 3.55581e-005 to 3.55581e-005
Heightened Def Con from 3.55581e-005 to 3.55581e-005
Heightened Def Con from 3.55581e-005 to 3.55581e-005
Heightened Def Con from 3.55581e-005 to 3.55581e-005
Heightened Def Con from 3.55581e-005 to 3.55581e-005
Heightened Def Con from 3.55581e-005 to 3.55581e-005
Heightened Def Con from 3.55581e-005 to 3.55581e-005
Heightened Def Con from 3.55581e-005 to 3.55581e-005
Heightened Def Con from 3.55581e-005 to 3.55581e-005
Heightened Def Con from 3.55581e-005 to 3.55581e-005
Heightened Def Con from 3.55581e-005 to 3.55581e-005
Heightened Def Con from 3.55581e-005 to 3.55581e-005
Heightened Def Con from 3.55581e-005 to 3.55581e-005
Heightened Def Con from 3.55581e-005 to 3.55581e-005
Heightened Def Con from 3.55581e-005 to 3.55581e-005
Heightened Def Con from 3.55581e-005 to 3.55581e-005
Heightened Def Con from 3.55581e-005 to 3.55581e-005
Heightened Def Con from 3.55581e-005 to 3.55581e-005
Heightened Def Con from 3.55581e-005 to 3.55581e-005
Heightened Def Con from 3.55581e-005 to 3.55581e-005
Heightened Def Con from 3.55581e-005 to 3.55581e-005
Heightened Def Con from 3.55581e-005 to 3.55581e-005
Heightened Def Con from 3.55581e-005 to 3.55581e-005
Heightened Def Con from 3.55581e-005 +to 3.55581e-005
Heightened Def Con from 3.55581e-005 to 3.55581e-005
Heightened Def Con from 3.55581e-005 to 3.55581e-005
Heightened Def Con from 3.55581e-005 to 3.55581e-005
Heightened Def Con from 3.55581e-005 to 3.55581e-005
Heightened Def Con from 3.55581e-005 to 3.55581e-005
Heightened Def Con from 3.55581e-005 to 3.55581e-005
Heightened Def Con from 3.55581e-005 to 3.55581e-005
Heightened Def Con from 3.55581e-005 to 3.55581e-005
Heightened Def Con from 3.55581e-005 to 3.55581e-005
Heightened Def Con from 3.55581e-005 to 3.55581e-005
Heightened Def Con from 3.55581e-005 to 3.55581e-005
Heightened Def Con from 3.55581e-005 to 3.55581e-005
Heightened Def Con from 3.55581e-005 to 3.55581e-005
Heightened Def Con from 3.55581e-005 to 3.55581e-005
Heightened Def Con from 3.55581e-005 to 3.55581e-005
Heightened Def Con from 3.55581e-005 to 3.55581e-005
Heightened Def Con from 3.55581e-005 to 3.55581e-005
Heightened Def Con from 3.55581e-005 to 3.55581e-005
Heightened Def Con from 3.55581e-005 to 3.55581e-005
Heightened Def Con from 3.55581e-005 to 3.55581e-005
Heightened Def Con from 3.55581e-005 to 3.55581e-005
Heightened Def Con from 3.55581e-005 to 3.55581e-005
Heightened Def Con from 3.55581e-005 to 3.55581e-005
Heightened Def Con from 3.55581e-005 to 3.55581e-005
Heightened Def Con from 3.55581e-005 to 3.55581e-005
Heightened Def Con from 3.55581e-005 +to 3.55581e-005
Heightened Def Con from 3.55581e-005 to 3.55581e-005
Heightened Def Con from 3.55581e-005 to 3.55581e-005
Heightened Def Con from 3.55581e-005 to 3.55581e-005
Heightened Def Con from 3.55581e-005 to 3.55581e-005
Heightened Def Con from 3.55581e-005 to 3.55581e-005
Heightened Def Con from 3.55581e-005 to 3.55581e-005
Heightened Def Con from 3.55581e-005 to 3.55581e-005
Heightened Def Con from 3.55581e-005 to 3.55581e-005
Heightened Def Con from 3.55581e-005 to 3.55581e-005
Heightened Def Con from 3.55581e-005 to 3.55581e-005
Heightened Def Con from 3.55581e-005 to 3.55581e-005
Heightened Def Con from 3.55581e-005 to 3.55581e-005
Heightened Def Con from 3.55581e-005 to 3.55581e-005
Heightened Def Con from 3.55581e-005 to 3.55581e-005
Heightened Def Con from 3.55581e-005 to 3.55581e-005
Heightened Def Con from 3.55581e-005 to 3.55581e-005
Heightened Def Con from 3.55581e-005 to 3.55581e-005
Heightened Def Con from 3.55581e-005 to 3.55581e-005
Heightened Def Con from 3.55581e-005 to 3.55581e-005
Heightened Def Con from 3.55581e-005 to 3.55581e-005
Heightened Def Con from 3.55581e-005 to 3.55581e-005
Heightened Def Con from 3.55581e-005 to 3.55581e-005
Heightened Def Con from 3.55581e-005 to 3.55581e-005
Heightened Def Con from 3.55581e-005 to 3.55581e-005
Heightened Def Con from 3.55581e-005 to 3.55581e-005
Heightened Def Con from 3.55581e-005 to 3.55581e-005
Heightened Def Con from 3.55581e-005 to 3.55581e-005
Heightened Def Con from 3.55581e-005 to 3.55581e-005
Heightened Def Con from 3.55581e-005 to 3.55581e-005
Heightened Def Con from 3.55581e-005 to 3.55581e-005
Heightened Def Con from 3.55581e-005 to 3.55581e-005
Heightened Def Con from 3.55581e-005 to 3.55581e-005
Heightened Def Con from 3.55581e-005 to 3.55581e-005
Heightened Def Con from 3.55581e-005 to 3.55581e-005
Heightened Def Con from 3.55581e-005 to 3.55581e-005
Heightened Def Con from 3.55581e-005 to 3.55581e-005
Heightened Def Con from 3.55581e-005 to 3.55581e-005
Heightened Def Con from 3.55581e-005 to 3.55581e-005
Heightened Def Con from 3.55581e-005 to 3.55581e-005
Heightened Def Con from 3.55581e-005 +to 3.55581e-005
Heightened Def Con from 3.55581e-005 to 3.55581e-005
Heightened Def Con from 3.55581e-005 to 3.55581e-005
Heightened Def Con from 3.55581e-005 to 3.55581e-005
Heightened Def Con from 3.55581e-005 to 3.55581e-005
Heightened Def Con from 3.55581e-005 to 3.55581e-005
Heightened Def Con from 3.55581e-005 to 3.55581e-005
Heightened Def Con from 3.55581e-005 to 3.55581e-005
Heightened Def Con from 3.55581e-005 to 3.55581e-005
Heightened Def Con from 3.55581e-005 to 3.55581e-005
Heightened Def Con from 3.55581e-005 to 3.55581e-005
Heightened Def Con from 3.55581e-005 to 3.55581e-005
Heightened Def Con from 3.55581e-005 to 3.55581e-005
Heightened Def Con from 3.55581e-005 to 3.55581e-005
Heightened Def Con from 3.55581e-005 to 3.55581e-005
Heightened Def Con from 3.55581e-005 +to 3.55581e-005
Heightened Def Con from 3.55581e-005 to 3.55581e-005
Heightened Def Con from 3.55581e-005 to 3.55581e-005
Heightened Def Con from 3.55581e-005 to 3.55581e-005
Heightened Def Con from 3.55581e-005 to 3.55581e-005

Date: Mon Jul 10 21:21:23 2023
Total elapsed time: 37.487 seconds.

tnom = 27
temp = 27
method = modified trap
totiter = 2373353
traniter = 2348882
tranpoints = 280421
accept = 133135
rejected = 157754
matrix size = 300
fillins = 204
solver = Normal
Thread vector: 21.2/9.0[9] 5.4/2.4[9] 12.2/3.6[9] 0.5/1.1[1]  2592/500
Matrix Compiler1: 16.91 KB object code size  3.7/1.3/[1.0]
Matrix Compiler2: 24.07 KB object code size  1.7/2.5/[1.3]

