Circuit: * C:\Users\joaqu\Desktop\Circuit-Design\BUCK\BUCK_v6_switching.asc

WARNING: Less than two connections to node D.  This node is used by VDUTY1.
Direct Newton iteration failed to find .op point.  (Use ".option noopiter" to skip.)
Starting Gmin stepping
Gmin = 10
Gmin = 1.07374
Gmin = 0.115292
Gmin = 0.0123794
Gmin = 0.00132923
Gmin = 0.000142725
Gmin = 1.5325e-005
Gmin = 1.6455e-006
vernier = 0.5
vernier = 0.25
Gmin = 5.97037e-007
vernier = 0.125
vernier = 0.0625
vernier = 0.03125
vernier = 0.015625
Gmin = 6.07986e-007
vernier = 0.0078125
vernier = 0.00390625
Gmin = 6.03846e-007
vernier = 0.00520833
vernier = 0.00260417
vernier = 0.00347222
Gmin = 6.0032e-007
vernier = 0.00462963
vernier = 0.00231481
Gmin = 5.97029e-007
vernier = 0.00308642
vernier = 0.00411522
Gmin = 5.91834e-007
vernier = 0.00548696
vernier = 0.00731595
Gmin = 5.83643e-007
vernier = 0.00975459
vernier = 0.0048773
Gmin = 5.76575e-007
vernier = 0.00650306
vernier = 0.00867074
vernier = 0.00433537
Gmin = 5.6967e-007
vernier = 0.00578049
Gmin = 5.62314e-007
vernier = 0.00770732
vernier = 0.0102764
Gmin = 5.50181e-007
vernier = 0.0137019
vernier = 0.0182692
Gmin = 5.31383e-007
vernier = 0.0243589
Gmin = 5.0312e-007
vernier = 0.0324786
vernier = 0.0433047
Gmin = 4.59085e-007
vernier = 0.0577396
vernier = 0.0769862
Gmin = 3.96859e-007
vernier = 0.102648
Gmin = 3.15859e-007
vernier = 0.136864
vernier = 0.182486
Gmin = 2.15938e-007
vernier = 0.243314
vernier = 0.324419
Gmin = 1.18569e-007
vernier = 0.432558
Gmin = 4.68744e-008
vernier = 0.576744
vernier = 0.768992
Gmin = 1.03393e-008
vernier = 1
Gmin = 1.22033e-009
Gmin = 1.31032e-010
Gmin = 1.40694e-011
Gmin = 1.51069e-012
Gmin = 1.62209e-013
Gmin = 0
Gmin stepping succeeded in finding the operating point.

Ignoring empty pin current: Ix(u1:1)
Ignoring empty pin current: Ix(u1:2)
Ignoring empty pin current: Ix(u1:3)
Ignoring empty pin current: Ix(u1:4)
Ignoring empty pin current: Ix(u1:5)
Ignoring empty pin current: Ix(u3:vc)
Ignoring empty pin current: Ix(u4:c)
Ignoring empty pin current: Ix(u4:vssin)
Ignoring empty pin current: Ix(u2:vc)
Ignoring empty pin current: Ix(u5:c)
Ignoring empty pin current: Ix(u5:vssin)
Ignoring empty pin current: Ix(u1:1)
Ignoring empty pin current: Ix(u1:2)
Ignoring empty pin current: Ix(u1:3)
Ignoring empty pin current: Ix(u1:4)
Ignoring empty pin current: Ix(u1:5)
Ignoring empty pin current: Ix(u3:vc)
Ignoring empty pin current: Ix(u4:c)
Ignoring empty pin current: Ix(u4:vssin)
Ignoring empty pin current: Ix(u2:vc)
Ignoring empty pin current: Ix(u5:c)
Ignoring empty pin current: Ix(u5:vssin)
Heightened Def Con from 0.00884953 to 0.00884953

Date: Thu Jun 01 01:05:58 2023
Total elapsed time: 33.064 seconds.

tnom = 27
temp = 27
method = modified trap
totiter = 1873109
traniter = 1870877
tranpoints = 547261
accept = 429507
rejected = 117755
matrix size = 109
fillins = 64
solver = Normal
Thread vector: 20.0/9.7[3] 4.7/3.2[3] 4.4/2.8[3] 0.2/0.6[1]  2592/500
Matrix Compiler1: 7.40 KB object code size  2.1/1.2/[0.6]
Matrix Compiler2: 9.23 KB object code size  1.6/2.0/[0.7]

