Circuit: * C:\Users\joaqu\Desktop\Circuit-Design\BUCK\BUCK_v6_switching.asc

Direct Newton iteration for .op point succeeded.
Ignoring empty pin current: Ix(u1:1)
Ignoring empty pin current: Ix(u1:2)
Ignoring empty pin current: Ix(u1:3)
Ignoring empty pin current: Ix(u1:4)
Ignoring empty pin current: Ix(u1:5)
Ignoring empty pin current: Ix(u8:vc)
Ignoring empty pin current: Ix(u2:c)
Ignoring empty pin current: Ix(u2:vssin)
Ignoring empty pin current: Ix(u3:c)
Ignoring empty pin current: Ix(u3:vssin)
Ignoring empty pin current: Ix(u1:1)
Ignoring empty pin current: Ix(u1:2)
Ignoring empty pin current: Ix(u1:3)
Ignoring empty pin current: Ix(u1:4)
Ignoring empty pin current: Ix(u1:5)
Ignoring empty pin current: Ix(u8:vc)
Ignoring empty pin current: Ix(u2:c)
Ignoring empty pin current: Ix(u2:vssin)
Ignoring empty pin current: Ix(u3:c)
Ignoring empty pin current: Ix(u3:vssin)
.step rl1=3.29
Heightened Def Con from 5.0005e-006 to 5.00057e-006
Heightened Def Con from 9.5005e-006 to 9.50057e-006
Heightened Def Con from 1.45005e-005 to 1.45006e-005
Heightened Def Con from 1.50005e-005 to 1.50006e-005
Heightened Def Con from 1.95005e-005 to 1.95006e-005
Heightened Def Con from 2.00005e-005 to 2.00006e-005
Heightened Def Con from 2.32838e-005 to 2.32839e-005
Heightened Def Con from 2.50005e-005 to 2.50006e-005
Heightened Def Con from 2.5126e-005 to 2.51277e-005
Heightened Def Con from 3.00005e-005 to 3.00006e-005
Heightened Def Con from 3.01058e-005 to 3.01059e-005
Heightened Def Con from 3.50005e-005 to 3.50006e-005
Heightened Def Con from 3.50871e-005 to 3.50889e-005
Heightened Def Con from 4.00005e-005 to 4.00006e-005
Heightened Def Con from 4.50005e-005 to 4.50006e-005
Heightened Def Con from 5.00005e-005 to 5.00006e-005
Heightened Def Con from 5.00106e-005 to 5.00156e-005
Heightened Def Con from 5.50005e-005 to 5.50006e-005
Heightened Def Con from 5.50106e-005 to 5.50156e-005
Heightened Def Con from 5.52352e-005 to 5.52354e-005
Heightened Def Con from 6.00005e-005 to 6.00006e-005
Heightened Def Con from 6.00506e-005 to 6.00512e-005
Heightened Def Con from 6.2019e-005 to 6.20191e-005
Heightened Def Con from 6.50005e-005 to 6.50006e-005
Heightened Def Con from 6.5461e-005 to 6.54627e-005
Heightened Def Con from 7.00005e-005 to 7.00006e-005
Heightened Def Con from 7.08294e-005 to 7.08295e-005
Heightened Def Con from 7.50005e-005 to 7.50006e-005
Heightened Def Con from 7.61955e-005 to 7.61956e-005
Heightened Def Con from 8.00005e-005 to 8.00006e-005
Heightened Def Con from 8.07298e-005 to 8.073e-005
Heightened Def Con from 8.50005e-005 to 8.50006e-005
Heightened Def Con from 8.60965e-005 to 8.60967e-005
Heightened Def Con from 9.00005e-005 to 9.00006e-005
Heightened Def Con from 9.08718e-005 to 9.08719e-005
Heightened Def Con from 9.50005e-005 to 9.50006e-005
Heightened Def Con from 9.59921e-005 to 9.59922e-005
Heightened Def Con from 0.0001 to 0.000100001
Heightened Def Con from 0.000100945 to 0.000100946
Heightened Def Con from 0.000105 to 0.000105001
Heightened Def Con from 0.000105955 to 0.000105955
Heightened Def Con from 0.00011 to 0.000110001
Heightened Def Con from 0.000110961 to 0.000110962
Heightened Def Con from 0.000115 to 0.000115001
Heightened Def Con from 0.000115948 to 0.000115948
Heightened Def Con from 0.00012 to 0.000120001
Heightened Def Con from 0.000120959 to 0.00012096
Heightened Def Con from 0.000125 to 0.000125001
Heightened Def Con from 0.000125946 to 0.000125946
Heightened Def Con from 0.00013 to 0.000130001
Heightened Def Con from 0.000130957 to 0.000130957
Heightened Def Con from 0.000135 to 0.000135001
Heightened Def Con from 0.000135944 to 0.000135944
Heightened Def Con from 0.00014 to 0.000140001
Heightened Def Con from 0.000140951 to 0.000140952
Heightened Def Con from 0.000145 to 0.000145001
Heightened Def Con from 0.000145945 to 0.000145945
Heightened Def Con from 0.00015 to 0.000150001
Heightened Def Con from 0.000150946 to 0.000150946
Heightened Def Con from 0.000155 to 0.000155001
Heightened Def Con from 0.000155943 to 0.000155945
Heightened Def Con from 0.00016 to 0.000160001
Heightened Def Con from 0.000160945 to 0.000160945
Heightened Def Con from 0.000165 to 0.000165001
Heightened Def Con from 0.000165942 to 0.000165942
Heightened Def Con from 0.00017 to 0.000170001
Heightened Def Con from 0.000170941 to 0.000170941
Heightened Def Con from 0.000175 to 0.000175001
Heightened Def Con from 0.00017594 to 0.00017594
Heightened Def Con from 0.00018 to 0.000180001
Heightened Def Con from 0.00018094 to 0.00018094
Heightened Def Con from 0.000185 to 0.000185001
Heightened Def Con from 0.000185939 to 0.000185939
Heightened Def Con from 0.00019 to 0.000190001
Heightened Def Con from 0.00019094 to 0.00019094
Heightened Def Con from 0.000195 to 0.000195001
Heightened Def Con from 0.000195937 to 0.000195937
Heightened Def Con from 0.0002 to 0.000200001
Heightened Def Con from 0.000200938 to 0.000200938
Heightened Def Con from 0.000205 to 0.000205001
Heightened Def Con from 0.000205939 to 0.000205939
Heightened Def Con from 0.00021 to 0.000210001
Heightened Def Con from 0.000210935 to 0.000210935
Heightened Def Con from 0.000215 to 0.000215001
Heightened Def Con from 0.000215939 to 0.000215939
Heightened Def Con from 0.00022 to 0.000220001
Heightened Def Con from 0.000220935 to 0.000220935
Heightened Def Con from 0.000225 to 0.000225001
Heightened Def Con from 0.000225937 to 0.000225938
Heightened Def Con from 0.00023 to 0.000230001
Heightened Def Con from 0.000230935 to 0.000230936
Heightened Def Con from 0.000235 to 0.000235001
Heightened Def Con from 0.000235936 to 0.000235936
Heightened Def Con from 0.00024 to 0.000240001
Heightened Def Con from 0.000240935 to 0.000240936
Heightened Def Con from 0.000245 to 0.000245001
Heightened Def Con from 0.000245061 to 0.00024507
Heightened Def Con from 0.000245934 to 0.000245934
Heightened Def Con from 0.00025 to 0.000250001
Heightened Def Con from 0.000250938 to 0.000250938
Heightened Def Con from 0.000255 to 0.000255001
Heightened Def Con from 0.000255933 to 0.000255933
Heightened Def Con from 0.00026 to 0.000260001
Heightened Def Con from 0.000260937 to 0.000260937
Heightened Def Con from 0.000265 to 0.000265001
Heightened Def Con from 0.000265934 to 0.000265934
Heightened Def Con from 0.00027 to 0.000270001
Heightened Def Con from 0.000270935 to 0.000270935
Heightened Def Con from 0.000275 to 0.000275001
Heightened Def Con from 0.000275936 to 0.000275936
Heightened Def Con from 0.00028 to 0.000280001
Heightened Def Con from 0.000280933 to 0.000280933
Heightened Def Con from 0.000285 to 0.000285001
Heightened Def Con from 0.000285937 to 0.000285937
Heightened Def Con from 0.00029 to 0.000290001
Heightened Def Con from 0.000290931 to 0.000290931
Heightened Def Con from 0.000295 to 0.000295001
Heightened Def Con from 0.000295937 to 0.000295938
Heightened Def Con from 0.0003 to 0.000300001
Heightened Def Con from 0.000300933 to 0.000300933
Heightened Def Con from 0.000305 to 0.000305001
Heightened Def Con from 0.000305936 to 0.000305937
Heightened Def Con from 0.00031 to 0.000310001
Heightened Def Con from 0.000310933 to 0.000310933
Heightened Def Con from 0.000315 to 0.000315001
Heightened Def Con from 0.000315934 to 0.000315935
Heightened Def Con from 0.00032 to 0.000320001
Heightened Def Con from 0.000320934 to 0.000320934
Heightened Def Con from 0.000325 to 0.000325001
Heightened Def Con from 0.000325936 to 0.000325936
Heightened Def Con from 0.00033 to 0.000330001
Heightened Def Con from 0.000330931 to 0.000330931
Heightened Def Con from 0.000335 to 0.000335001
Heightened Def Con from 0.000335939 to 0.000335939
Heightened Def Con from 0.00034 to 0.000340001
Heightened Def Con from 0.00034093 to 0.000340931
Heightened Def Con from 0.000345 to 0.000345001
Heightened Def Con from 0.000345937 to 0.000345938
Heightened Def Con from 0.00035 to 0.000350001
Heightened Def Con from 0.000350931 to 0.000350931
Heightened Def Con from 0.000355 to 0.000355001
Heightened Def Con from 0.000355937 to 0.000355938
Heightened Def Con from 0.00036 to 0.000360001
Heightened Def Con from 0.000360932 to 0.000360932
Heightened Def Con from 0.000365 to 0.000365001
Heightened Def Con from 0.000365936 to 0.000365936
Heightened Def Con from 0.00037 to 0.000370001
Heightened Def Con from 0.000370933 to 0.000370933
Heightened Def Con from 0.000375 to 0.000375001
Heightened Def Con from 0.000375935 to 0.000375935
Heightened Def Con from 0.00038 to 0.000380001
Heightened Def Con from 0.000380936 to 0.000380936
Heightened Def Con from 0.000385 to 0.000385001
Heightened Def Con from 0.000385933 to 0.000385933
Heightened Def Con from 0.00039 to 0.000390001
Heightened Def Con from 0.000390936 to 0.000390936
Heightened Def Con from 0.000395 to 0.000395001
Heightened Def Con from 0.000395932 to 0.000395932
Heightened Def Con from 0.0004 to 0.000400001
Heightened Def Con from 0.000400938 to 0.000400938
Heightened Def Con from 0.000405 to 0.000405001
Heightened Def Con from 0.000405931 to 0.000405931
Heightened Def Con from 0.00041 to 0.000410001
Heightened Def Con from 0.000410937 to 0.000410937
Heightened Def Con from 0.000415 to 0.000415001
Heightened Def Con from 0.000415933 to 0.000415933
Heightened Def Con from 0.00042 to 0.000420001
Heightened Def Con from 0.000420935 to 0.000420937
Heightened Def Con from 0.000425 to 0.000425001
Heightened Def Con from 0.00043 to 0.00043
Heightened Def Con from 0.00043 to 0.000430001
Heightened Def Con from 0.000430934 to 0.000430935
Heightened Def Con from 0.000435 to 0.000435001
Heightened Def Con from 0.000435935 to 0.000435935
Heightened Def Con from 0.00044 to 0.000440001
Heightened Def Con from 0.000440934 to 0.000440934
Heightened Def Con from 0.000445 to 0.000445001
Heightened Def Con from 0.000445935 to 0.000445935
Heightened Def Con from 0.00045 to 0.000450001
Heightened Def Con from 0.000450934 to 0.000450934
Heightened Def Con from 0.000455 to 0.000455001
Heightened Def Con from 0.000455935 to 0.000455935
Heightened Def Con from 0.00046 to 0.000460001
Heightened Def Con from 0.000460934 to 0.000460934
Heightened Def Con from 0.000465 to 0.000465001
Heightened Def Con from 0.000465933 to 0.000465933
Heightened Def Con from 0.00047 to 0.000470001
Heightened Def Con from 0.000470936 to 0.000470937
Heightened Def Con from 0.000475 to 0.000475001
Heightened Def Con from 0.000475931 to 0.000475931
Heightened Def Con from 0.00048 to 0.000480001
Heightened Def Con from 0.000480937 to 0.000480939
Heightened Def Con from 0.000485 to 0.000485001
Heightened Def Con from 0.000485933 to 0.000485934
Heightened Def Con from 0.00049 to 0.000490001
Heightened Def Con from 0.000490933 to 0.000490933
Heightened Def Con from 0.000495 to 0.000495001
Heightened Def Con from 0.000495937 to 0.000495937
.step rl1=64.5

Date: Fri Jun 02 19:37:07 2023
Total elapsed time: 13.194 seconds.

tnom = 27
temp = 27
method = modified trap
totiter = 397658
traniter = 397623
tranpoints = 105925
accept = 78702
rejected = 27409
matrix size = 94
fillins = 53
solver = Normal
Thread vector: 18.8/14.8[2] 5.7/4.3[2] 3.1/2.7[2] 0.4/0.7[1]  2592/500
Matrix Compiler1: 6.93 KB object code size  2.6/1.6/[0.8]
Matrix Compiler2: 8.16 KB object code size  1.5/2.4/[0.9]

