Circuit: * D:\Uli\FIUBA\Materias\Diseño de Circuitos\TP\Circuit-Design\BUCK\Draft1.asc

WARNING: Less than two connections to node D.  This node is used by VDUTY1.
Direct Newton iteration failed to find .op point.  (Use ".option noopiter" to skip.)
Starting Gmin stepping
Gmin = 10
Gmin = 1.07374
Gmin = 0.115292
Gmin = 0.0123794
Gmin = 0.00132923
Gmin = 0.000142725
Gmin = 1.5325e-005
Gmin = 1.6455e-006
Gmin = 1.76685e-007
Gmin = 1.89714e-008
Gmin = 2.03704e-009
Gmin = 2.18725e-010
Gmin = 2.34854e-011
Gmin = 2.52173e-012
Gmin = 2.70769e-013
Gmin = 0
Gmin stepping succeeded in finding the operating point.

Ignoring empty pin current: Ix(u3:5)
Ignoring empty pin current: Ix(u3:5)

Date: Mon May 29 16:33:13 2023
Total elapsed time: 0.271 seconds.

tnom = 27
temp = 27
method = modified trap
totiter = 49523
traniter = 49029
tranpoints = 16510
accept = 14309
rejected = 2201
matrix size = 50
fillins = 48
solver = Normal
Matrix Compiler1:     228 opcodes  0.7/[0.2]/0.3
Matrix Compiler2: 4.39 KB object code size  0.3/0.4/[0.3]

