Circuit: * D:\Uli\FIUBA\Materias\Diseño de Circuitos\TP\Circuit-Design\Regulador_completo\Buck_v.asc

Direct Newton iteration for .op point succeeded.
Ignoring empty pin current: Ix(u3:5)
Ignoring empty pin current: Ix(u3:5)
Heightened Def Con from 0.001 to 0.001
Heightened Def Con from 0.002 +++++++to 0.002
Heightened Def Con from 0.002 +++++++++++++to 0.002
Heightened Def Con from 0.002 +++++++++++to 0.002
Heightened Def Con from 0.002 +++++++++++to 0.002
Heightened Def Con from 0.002 +++++++++++++++to 0.002
Heightened Def Con from 0.002 +++++++++++++++++to 0.002
Heightened Def Con from 0.002 ++++++++++++++to 0.002
Heightened Def Con from 0.002 +++++++++++++++++to 0.002
Heightened Def Con from 0.002 +++++++++++++++to 0.002
Heightened Def Con from 0.002 +++++++++++++++to 0.002
Heightened Def Con from 0.002 +++++++++++++++to 0.002
Heightened Def Con from 0.002 +++++++++++++++to 0.002
Heightened Def Con from 0.002 +++++++++++++++to 0.002
Heightened Def Con from 0.002 ++++++++++++++to 0.002
Heightened Def Con from 0.002 +++++++++++++++++to 0.002
Heightened Def Con from 0.002 ++++++++++++++to 0.002
Heightened Def Con from 0.002 +++++++++++++++++to 0.002
Heightened Def Con from 0.002 +++++++++++++++to 0.002
Heightened Def Con from 0.002 +++++++++++++++to 0.002
Heightened Def Con from 0.002 +++++++++++++++++to 0.002
Heightened Def Con from 0.002 +++++++++++++++++to 0.002
Heightened Def Con from 0.002 ++++++++++++++to 0.002
Heightened Def Con from 0.002 +++++++++++++++++to 0.002
Heightened Def Con from 0.002 ++++++++++++++to 0.002
Heightened Def Con from 0.002 +++++++++++++++++to 0.002
Heightened Def Con from 0.002 +++++++++++++++to 0.002
Heightened Def Con from 0.002 +++++++++++++++++to 0.002
Heightened Def Con from 0.002 +++++++++++++++++to 0.002
Heightened Def Con from 0.002 +++++++++++++++to 0.002
Heightened Def Con from 0.002 ++++++++++++++to 0.002
Heightened Def Con from 0.002 +++++++++++++++to 0.002
Heightened Def Con from 0.002 +++++++++++++++to 0.002
Heightened Def Con from 0.002 +++++++++++++++to 0.002
Heightened Def Con from 0.002 ++++++++++++++to 0.002
Heightened Def Con from 0.002 ++++++++++++++to 0.002
Heightened Def Con from 0.002 ++++++++++++++++to 0.002
Heightened Def Con from 0.002 +++++++++++++to 0.002
Heightened Def Con from 0.002 ++++++++++++++to 0.002
Heightened Def Con from 0.002 ++++++++++++++to 0.002
Heightened Def Con from 0.002 +++++++++++++++++to 0.002
Heightened Def Con from 0.002 ++++++++++++++to 0.002
Heightened Def Con from 0.002 +++++++++++++++++to 0.002
Heightened Def Con from 0.002 +++++++++++++++++to 0.002
Heightened Def Con from 0.002 +++++++++++to 0.002
Heightened Def Con from 0.002 +++++++++++++to 0.002
Heightened Def Con from 0.002 +++++++++++++++++to 0.002
Heightened Def Con from 0.002 +++++++++++++++to 0.002
Heightened Def Con from 0.002 ++++++++++++++to 0.002
Heightened Def Con from 0.002 +++++++++++++++to 0.002
Heightened Def Con from 0.002 +++++++++++++to 0.002
Heightened Def Con from 0.002 +++++++++++++++++to 0.002
Heightened Def Con from 0.002 +++++++++++++to 0.002
Heightened Def Con from 0.002 +++++++++++++++to 0.002
Heightened Def Con from 0.002 +++++++++++++++to 0.002
Heightened Def Con from 0.002 ++++++++++++to 0.002
Heightened Def Con from 0.002 +++++++++++++++to 0.002
Heightened Def Con from 0.002 +++++++++++++++to 0.002
Heightened Def Con from 0.002 +++++++++++++++++to 0.002
Heightened Def Con from 0.002 +++++++++++++++++++to 0.002
Heightened Def Con from 0.002 ++++++++++++++++++to 0.002
Heightened Def Con from 0.002 ++++++++++++++++++to 0.002
Heightened Def Con from 0.002 ++++++++++++++++++to 0.002
Heightened Def Con from 0.002 ++++++++++++++++++to 0.002
Heightened Def Con from 0.002 ++++++++++++++++++to 0.002
Heightened Def Con from 0.002 +++++++++++++++++++to 0.002
Heightened Def Con from 0.002 +++++++++++++++++++to 0.002

Date: Tue Jul 18 23:57:54 2023
Total elapsed time: 0.275 seconds.

tnom = 27
temp = 27
method = modified trap
totiter = 75514
traniter = 75504
tranpoints = 8046
accept = 2519
rejected = 6599
matrix size = 51
fillins = 75
solver = Normal
Matrix Compiler1: 6.66 KB object code size  1.1/0.4/[0.3]
Matrix Compiler2: 5.12 KB object code size  0.3/0.3/[0.3]

