Circuit: * C:\Users\joaqu\Desktop\Circuit-Design\Regulador_completo\Regulador_Completo_Symbols.asc

V2: Missing value, assumed 0V @ DC
Early termination of direct N-R iteration.
Direct Newton iteration failed to find .op point.  (Use ".option noopiter" to skip.)
Starting Gmin stepping
Gmin = 10
vernier = 0.5
Gmin = 1.67772
vernier = 0.25
vernier = 0.125
vernier = 0.0625
vernier = 0.03125
vernier = 0.015625
vernier = 0.0078125
vernier = 0.00390625
vernier = 0.00195313
Gmin = 1.49131
vernier = 0.000976563
vernier = 0.000488281
Gmin = 0
Gmin stepping succeeded in finding the operating point.

Ignoring empty pin current: Ix(u1:1)
Ignoring empty pin current: Ix(u1:2)
Ignoring empty pin current: Ix(u1:3)
Ignoring empty pin current: Ix(u1:4)
Ignoring empty pin current: Ix(u1:5)
Ignoring empty pin current: Ix(u2:1)
Ignoring empty pin current: Ix(u2:2)
Ignoring empty pin current: Ix(u2:3)
Ignoring empty pin current: Ix(u2:4)
Ignoring empty pin current: Ix(u2:5)
Ignoring empty pin current: Ix(u3:1)
Ignoring empty pin current: Ix(u3:2)
Ignoring empty pin current: Ix(u3:3)
Ignoring empty pin current: Ix(u3:4)
Ignoring empty pin current: Ix(u3:5)
Ignoring empty pin current: Ix(u4:1)
Ignoring empty pin current: Ix(u4:2)
Ignoring empty pin current: Ix(u4:3)
Ignoring empty pin current: Ix(u4:4)
Ignoring empty pin current: Ix(u4:5)
Ignoring empty pin current: Ix(u5:1)
Ignoring empty pin current: Ix(u5:2)
Ignoring empty pin current: Ix(u5:3)
Ignoring empty pin current: Ix(u5:4)
Ignoring empty pin current: Ix(u5:5)
Ignoring empty pin current: Ix(buck:vin)
Ignoring empty pin current: Ix(buck:vop)
Ignoring empty pin current: Ix(ldoa:vop)
Ignoring empty pin current: Ix(u1:1)
Ignoring empty pin current: Ix(u1:2)
Ignoring empty pin current: Ix(u1:3)
Ignoring empty pin current: Ix(u1:4)
Ignoring empty pin current: Ix(u1:5)
Ignoring empty pin current: Ix(u2:1)
Ignoring empty pin current: Ix(u2:2)
Ignoring empty pin current: Ix(u2:3)
Ignoring empty pin current: Ix(u2:4)
Ignoring empty pin current: Ix(u2:5)
Ignoring empty pin current: Ix(u3:1)
Ignoring empty pin current: Ix(u3:2)
Ignoring empty pin current: Ix(u3:3)
Ignoring empty pin current: Ix(u3:4)
Ignoring empty pin current: Ix(u3:5)
Ignoring empty pin current: Ix(u4:1)
Ignoring empty pin current: Ix(u4:2)
Ignoring empty pin current: Ix(u4:3)
Ignoring empty pin current: Ix(u4:4)
Ignoring empty pin current: Ix(u4:5)
Ignoring empty pin current: Ix(u5:1)
Ignoring empty pin current: Ix(u5:2)
Ignoring empty pin current: Ix(u5:3)
Ignoring empty pin current: Ix(u5:4)
Ignoring empty pin current: Ix(u5:5)
Ignoring empty pin current: Ix(buck:vin)
Ignoring empty pin current: Ix(buck:vop)
Ignoring empty pin current: Ix(ldoa:vop)



Date: Fri Jun 23 18:26:48 2023
Total elapsed time: 1.711 seconds.

tnom = 27
temp = 27
method = modified trap
totiter = 4981
traniter = 3641
tranpoints = 1488
accept = 1361
rejected = 127
matrix size = 261
fillins = 2229
solver = Normal
Thread vector: 23.3/13.5[4] 11.6/6.2[4] 8.5/4.9[4] 1.7/2.7[1]  2592/500
Matrix Compiler1: 327.91 KB object code size  70.7/30.8/[16.6]
Matrix Compiler2: 57.27 KB object code size  12.2/8.2/[4.7]

