Circuit: * C:\Users\joaqu\Desktop\Circuit-Design\Regulador_completo\Regulador_completo_v2_average.asc

WARNING: Less than two connections to node VREF.  This node is used by R15.
WARNING: Less than two connections to node NC_01.  This node is used by V4.
Direct Newton iteration for .op point succeeded.
Ignoring empty pin current: Ix(u12:5)
Ignoring empty pin current: Ix(u12:5)



Date: Fri Jun 02 20:57:43 2023
Total elapsed time: 0.430 seconds.

tnom = 27
temp = 27
method = modified trap
totiter = 3431
traniter = 3387
tranpoints = 1471
accept = 1319
rejected = 152
matrix size = 266
fillins = 410
solver = Normal
Thread vector: 26.4/14.2[4] 5.6/4.2[4] 3.7/2.6[3] 0.9/1.5[1]  2592/500
Matrix Compiler1: 35.10 KB object code size  9.1/4.0/[2.4]
Matrix Compiler2: 28.63 KB object code size  3.1/4.0/[1.9]

