Circuit: * D:\Uli\FIUBA\Materias\Diseño de Circuitos\TP\Circuit-Design\Regulador_completo\Regulador_Completo_Symbols.asc

Early termination of direct N-R iteration.
Direct Newton iteration failed to find .op point.  (Use ".option noopiter" to skip.)
Starting Gmin stepping
Gmin = 10
vernier = 0.5
vernier = 0.25
vernier = 0.125
vernier = 0.0625
Gmin = 8.61953
vernier = 0.03125
vernier = 0.015625
vernier = 0.0078125
vernier = 0.00390625
Gmin = 8.47038
vernier = 0.00195313
vernier = 0.000976563
vernier = 0.000488281
Gmin = 0
Gmin stepping succeeded in finding the operating point.

Ignoring empty pin current: Ix(u1:1)
Ignoring empty pin current: Ix(u1:2)
Ignoring empty pin current: Ix(u1:3)
Ignoring empty pin current: Ix(u1:4)
Ignoring empty pin current: Ix(u1:5)
Ignoring empty pin current: Ix(u2:1)
Ignoring empty pin current: Ix(u2:2)
Ignoring empty pin current: Ix(u2:3)
Ignoring empty pin current: Ix(u2:4)
Ignoring empty pin current: Ix(u2:5)
Ignoring empty pin current: Ix(u3:1)
Ignoring empty pin current: Ix(u3:2)
Ignoring empty pin current: Ix(u3:3)
Ignoring empty pin current: Ix(u3:4)
Ignoring empty pin current: Ix(u3:5)
Ignoring empty pin current: Ix(u4:1)
Ignoring empty pin current: Ix(u4:2)
Ignoring empty pin current: Ix(u4:3)
Ignoring empty pin current: Ix(u4:4)
Ignoring empty pin current: Ix(u4:5)
Ignoring empty pin current: Ix(u5:1)
Ignoring empty pin current: Ix(u5:2)
Ignoring empty pin current: Ix(u5:3)
Ignoring empty pin current: Ix(u5:4)
Ignoring empty pin current: Ix(u5:5)
Ignoring empty pin current: Ix(buck:vin)
Ignoring empty pin current: Ix(buck:vop)
Ignoring empty pin current: Ix(ldoa:vop)
Ignoring empty pin current: Ix(u1:1)
Ignoring empty pin current: Ix(u1:2)
Ignoring empty pin current: Ix(u1:3)
Ignoring empty pin current: Ix(u1:4)
Ignoring empty pin current: Ix(u1:5)
Ignoring empty pin current: Ix(u2:1)
Ignoring empty pin current: Ix(u2:2)
Ignoring empty pin current: Ix(u2:3)
Ignoring empty pin current: Ix(u2:4)
Ignoring empty pin current: Ix(u2:5)
Ignoring empty pin current: Ix(u3:1)
Ignoring empty pin current: Ix(u3:2)
Ignoring empty pin current: Ix(u3:3)
Ignoring empty pin current: Ix(u3:4)
Ignoring empty pin current: Ix(u3:5)
Ignoring empty pin current: Ix(u4:1)
Ignoring empty pin current: Ix(u4:2)
Ignoring empty pin current: Ix(u4:3)
Ignoring empty pin current: Ix(u4:4)
Ignoring empty pin current: Ix(u4:5)
Ignoring empty pin current: Ix(u5:1)
Ignoring empty pin current: Ix(u5:2)
Ignoring empty pin current: Ix(u5:3)
Ignoring empty pin current: Ix(u5:4)
Ignoring empty pin current: Ix(u5:5)
Ignoring empty pin current: Ix(buck:vin)
Ignoring empty pin current: Ix(buck:vop)
Ignoring empty pin current: Ix(ldoa:vop)



Date: Tue Jul 18 23:29:23 2023
Total elapsed time: 0.953 seconds.

tnom = 27
temp = 27
method = modified trap
totiter = 6122
traniter = 4756
tranpoints = 1867
accept = 1667
rejected = 200
matrix size = 262
fillins = 2051
solver = Normal
Thread vector: 12.8/8.0[4] 4.4/3.1[4] 5.7/2.6[4] 1.2/3.0[1]  2592/500
Matrix Compiler1: 310.92 KB object code size  33.7/12.0/[9.8]
Matrix Compiler2: 55.20 KB object code size  6.5/3.8/[3.1]

