Circuit: * D:\Uli\FIUBA\Materias\Diseño de Circuitos\TP\Circuit-Design\Regulador_completo\Regulador_Completo_Symbols.asc

Early termination of direct N-R iteration.
Direct Newton iteration failed to find .op point.  (Use ".option noopiter" to skip.)
Starting Gmin stepping
Gmin = 10
Gmin = 1.07374
Gmin = 0.115292
Gmin = 0.0123794
Gmin = 0.00132923
Gmin = 0.000142725
Gmin = 1.5325e-005
Gmin = 1.6455e-006
Gmin = 1.76685e-007
Gmin = 1.89714e-008
Gmin = 2.03704e-009
Gmin = 2.18725e-010
Gmin = 2.34854e-011
Gmin = 2.52173e-012
Gmin = 2.70769e-013
Gmin = 0
Gmin stepping succeeded in finding the operating point.

Ignoring empty pin current: Ix(u3:1)
Ignoring empty pin current: Ix(u3:2)
Ignoring empty pin current: Ix(u3:99)
Ignoring empty pin current: Ix(u3:50)
Ignoring empty pin current: Ix(u3:28)
Ignoring empty pin current: Ix(u1:2)
Ignoring empty pin current: Ix(u1:3)
Ignoring empty pin current: Ix(u1:1)
Ignoring empty pin current: Ix(u2:2)
Ignoring empty pin current: Ix(u2:3)
Ignoring empty pin current: Ix(u2:1)
Ignoring empty pin current: Ix(u4:1)
Ignoring empty pin current: Ix(u4:2)
Ignoring empty pin current: Ix(u4:99)
Ignoring empty pin current: Ix(u4:50)
Ignoring empty pin current: Ix(u4:28)
Ignoring empty pin current: Ix(u5:1)
Ignoring empty pin current: Ix(u5:2)
Ignoring empty pin current: Ix(u5:99)
Ignoring empty pin current: Ix(u5:50)
Ignoring empty pin current: Ix(u5:28)
Ignoring empty pin current: Ix(buck:vin)
Ignoring empty pin current: Ix(buck:vop)
Ignoring empty pin current: Ix(ldoa:vop)
Ignoring empty pin current: Ix(u3:1)
Ignoring empty pin current: Ix(u3:2)
Ignoring empty pin current: Ix(u3:99)
Ignoring empty pin current: Ix(u3:50)
Ignoring empty pin current: Ix(u3:28)
Ignoring empty pin current: Ix(u1:2)
Ignoring empty pin current: Ix(u1:3)
Ignoring empty pin current: Ix(u1:1)
Ignoring empty pin current: Ix(u2:2)
Ignoring empty pin current: Ix(u2:3)
Ignoring empty pin current: Ix(u2:1)
Ignoring empty pin current: Ix(u4:1)
Ignoring empty pin current: Ix(u4:2)
Ignoring empty pin current: Ix(u4:99)
Ignoring empty pin current: Ix(u4:50)
Ignoring empty pin current: Ix(u4:28)
Ignoring empty pin current: Ix(u5:1)
Ignoring empty pin current: Ix(u5:2)
Ignoring empty pin current: Ix(u5:99)
Ignoring empty pin current: Ix(u5:50)
Ignoring empty pin current: Ix(u5:28)
Ignoring empty pin current: Ix(buck:vin)
Ignoring empty pin current: Ix(buck:vop)
Ignoring empty pin current: Ix(ldoa:vop)



Date: Tue Jun 20 21:00:59 2023
Total elapsed time: 0.506 seconds.

tnom = 27
temp = 27
method = modified trap
totiter = 14551
traniter = 14147
tranpoints = 3856
accept = 3125
rejected = 731
matrix size = 293
fillins = 723
solver = Normal
Thread vector: 14.0/8.0[4] 5.1/3.9[4] 4.2/2.9[4] 0.8/1.3[1]  2592/500
Matrix Compiler1: 61.20 KB object code size  10.7/3.2/[2.9]
Matrix Compiler2: 36.56 KB object code size  2.6/3.0/[1.5]

