Circuit: * D:\Uli\FIUBA\Materias\Diseño de Circuitos\TP\Circuit-Design\Regulador_completo\Regulador_Completo_Symbols.asc

Early termination of direct N-R iteration.
Direct Newton iteration failed to find .op point.  (Use ".option noopiter" to skip.)
Starting Gmin stepping
Gmin = 10
Gmin = 1.07374
Gmin = 0.115292
Gmin = 0.0123794
Gmin = 0.00132923
Gmin = 0.000142725
Gmin = 1.5325e-005
Gmin = 1.6455e-006
Gmin = 1.76685e-007
Gmin = 1.89714e-008
Gmin = 2.03704e-009
Gmin = 2.18725e-010
Gmin = 2.34854e-011
Gmin = 2.52173e-012
Gmin = 2.70769e-013
Gmin = 0
Gmin stepping succeeded in finding the operating point.

Ignoring empty pin current: Ix(u1:1)
Ignoring empty pin current: Ix(u1:2)
Ignoring empty pin current: Ix(u1:99)
Ignoring empty pin current: Ix(u1:50)
Ignoring empty pin current: Ix(u1:28)
Ignoring empty pin current: Ix(u2:1)
Ignoring empty pin current: Ix(u2:2)
Ignoring empty pin current: Ix(u2:99)
Ignoring empty pin current: Ix(u2:50)
Ignoring empty pin current: Ix(u2:28)
Ignoring empty pin current: Ix(u3:1)
Ignoring empty pin current: Ix(u3:2)
Ignoring empty pin current: Ix(u3:99)
Ignoring empty pin current: Ix(u3:50)
Ignoring empty pin current: Ix(u3:28)
Ignoring empty pin current: Ix(u4:1)
Ignoring empty pin current: Ix(u4:2)
Ignoring empty pin current: Ix(u4:99)
Ignoring empty pin current: Ix(u4:50)
Ignoring empty pin current: Ix(u4:28)
Ignoring empty pin current: Ix(u5:1)
Ignoring empty pin current: Ix(u5:2)
Ignoring empty pin current: Ix(u5:99)
Ignoring empty pin current: Ix(u5:50)
Ignoring empty pin current: Ix(u5:28)
Ignoring empty pin current: Ix(buck:vin)
Ignoring empty pin current: Ix(buck:vop)
Ignoring empty pin current: Ix(u1:1)
Ignoring empty pin current: Ix(u1:2)
Ignoring empty pin current: Ix(u1:99)
Ignoring empty pin current: Ix(u1:50)
Ignoring empty pin current: Ix(u1:28)
Ignoring empty pin current: Ix(u2:1)
Ignoring empty pin current: Ix(u2:2)
Ignoring empty pin current: Ix(u2:99)
Ignoring empty pin current: Ix(u2:50)
Ignoring empty pin current: Ix(u2:28)
Ignoring empty pin current: Ix(u3:1)
Ignoring empty pin current: Ix(u3:2)
Ignoring empty pin current: Ix(u3:99)
Ignoring empty pin current: Ix(u3:50)
Ignoring empty pin current: Ix(u3:28)
Ignoring empty pin current: Ix(u4:1)
Ignoring empty pin current: Ix(u4:2)
Ignoring empty pin current: Ix(u4:99)
Ignoring empty pin current: Ix(u4:50)
Ignoring empty pin current: Ix(u4:28)
Ignoring empty pin current: Ix(u5:1)
Ignoring empty pin current: Ix(u5:2)
Ignoring empty pin current: Ix(u5:99)
Ignoring empty pin current: Ix(u5:50)
Ignoring empty pin current: Ix(u5:28)
Ignoring empty pin current: Ix(buck:vin)
Ignoring empty pin current: Ix(buck:vop)
Heightened Def Con from 4.51919e-006 ++++++++++++++++++++to 4.52319e-006
Heightened Def Con from 2.05196e-005 ++++++++++++++++to 2.05206e-005
Heightened Def Con from 2.05206e-005 ++++++++++++++++to 2.05226e-005
Heightened Def Con from 2.05226e-005 ++++++++++++++++to 2.05246e-005
Heightened Def Con from 2.05246e-005 ++++++++++++++++to 2.05276e-005
Heightened Def Con from 2.05276e-005 ++++++++++++++++to 2.05306e-005
Heightened Def Con from 2.05306e-005 ++++++++++++++++to 2.05336e-005
Heightened Def Con from 2.05336e-005 ++++++++++++++++to 2.05366e-005
Heightened Def Con from 2.05366e-005 ++++++++++++++++to 2.05396e-005
Heightened Def Con from 2.05396e-005 ++++++++++++++++to 2.05426e-005
Heightened Def Con from 2.05426e-005 ++++++++++++++++to 2.05456e-005
Heightened Def Con from 2.05456e-005 ++++++++++++++++to 2.05486e-005
Heightened Def Con from 2.05486e-005 ++++++++++++++++to 2.05516e-005
Heightened Def Con from 2.05516e-005 ++++++++++++++++to 2.05546e-005
Heightened Def Con from 2.05546e-005 ++++++++++++++++to 2.05576e-005
Heightened Def Con from 2.05576e-005 ++++++++++++++++to 2.05606e-005
Heightened Def Con from 2.05606e-005 ++++++++++++++++to 2.05636e-005
Heightened Def Con from 2.05636e-005 ++++++++++++++++to 2.05666e-005
Heightened Def Con from 2.05666e-005 ++++++++++++++++to 2.05686e-005
Heightened Def Con from 2.05686e-005 ++++++++++++++++to 2.05706e-005
Heightened Def Con from 2.05706e-005 ++++++++++++++++to 2.05726e-005
Heightened Def Con from 2.05726e-005 ++++++++++++++++to 2.05746e-005
Heightened Def Con from 2.05746e-005 ++++++++++++++++to 2.05766e-005
Heightened Def Con from 2.05766e-005 ++++++++++++++++to 2.05786e-005
Heightened Def Con from 2.05786e-005 ++++++++++++++++to 2.05806e-005
Heightened Def Con from 2.05806e-005 ++++++++++++++++to 2.05826e-005
Heightened Def Con from 2.05826e-005 ++++++++++++++++to 2.05846e-005
Heightened Def Con from 2.05846e-005 ++++++++++++++++to 2.05866e-005
Heightened Def Con from 2.05866e-005 ++++++++++++++++to 2.05886e-005
Heightened Def Con from 2.05886e-005 ++++++++++++++++to 2.05906e-005
Heightened Def Con from 2.05906e-005 ++++++++++++++++to 2.05926e-005
Heightened Def Con from 2.05926e-005 ++++++++++++++++to 2.05946e-005
Heightened Def Con from 2.05946e-005 ++++++++++++++++to 2.05966e-005
Heightened Def Con from 2.05966e-005 ++++++++++++++++to 2.05986e-005
Heightened Def Con from 2.05986e-005 ++++++++++++++++to 2.06006e-005
Heightened Def Con from 2.06006e-005 ++++++++++++++++to 2.06026e-005
Heightened Def Con from 2.06026e-005 ++++++++++++++++to 2.06046e-005
Heightened Def Con from 2.06046e-005 ++++++++++++++++to 2.06066e-005
Heightened Def Con from 2.06066e-005 ++++++++++++++++to 2.06086e-005
Heightened Def Con from 2.06086e-005 ++++++++++++++++to 2.06096e-005
Heightened Def Con from 2.06096e-005 ++++++++++++++++to 2.06106e-005
Heightened Def Con from 2.06106e-005 ++++++++++++++++to 2.06116e-005
Heightened Def Con from 2.06116e-005 ++++++++++++++++to 2.06126e-005
Heightened Def Con from 2.06126e-005 ++++++++++++++++to 2.06136e-005
Heightened Def Con from 2.06136e-005 ++++++++++++++++to 2.06146e-005
Heightened Def Con from 2.06146e-005 ++++++++++++++++to 2.06156e-005
Heightened Def Con from 2.06156e-005 ++++++++++++++++to 2.06166e-005
Heightened Def Con from 2.06166e-005 ++++++++++++++++to 2.06176e-005
Heightened Def Con from 2.06176e-005 ++++++++++++++++to 2.06186e-005
Heightened Def Con from 2.06186e-005 ++++++++++++++++to 2.06196e-005
Heightened Def Con from 2.06196e-005 ++++++++++++++++to 2.06206e-005
Heightened Def Con from 2.06206e-005 ++++++++++++++++to 2.06216e-005
Heightened Def Con from 2.06216e-005 ++++++++++++++++to 2.06226e-005
Heightened Def Con from 2.06226e-005 ++++++++++++++++to 2.06236e-005
Heightened Def Con from 2.06236e-005 ++++++++++++++++to 2.06246e-005
Heightened Def Con from 2.06246e-005 ++++++++++++++++to 2.06256e-005
Heightened Def Con from 2.06256e-005 ++++++++++++++++to 2.06266e-005
Heightened Def Con from 2.06266e-005 ++++++++++++++++to 2.06276e-005
Heightened Def Con from 2.06276e-005 ++++++++++++++++to 2.06286e-005
Heightened Def Con from 2.06286e-005 ++++++++++++++++to 2.06296e-005
Heightened Def Con from 2.06296e-005 ++++++++++++++++to 2.06306e-005
Heightened Def Con from 2.06306e-005 ++++++++++++++++to 2.06316e-005
Heightened Def Con from 2.06316e-005 ++++++++++++++++to 2.06326e-005
Heightened Def Con from 2.06326e-005 ++++++++++++++++to 2.06336e-005
Heightened Def Con from 2.06336e-005 ++++++++++++++++to 2.06346e-005
Heightened Def Con from 2.06346e-005 ++++++++++++++++to 2.06356e-005
Heightened Def Con from 2.06356e-005 ++++++++++++++++to 2.06366e-005
Heightened Def Con from 2.06366e-005 ++++++++++++++++to 2.06376e-005
Heightened Def Con from 2.06376e-005 ++++++++++++++++to 2.06386e-005
Heightened Def Con from 2.06386e-005 ++++++++++++++++to 2.06396e-005
Heightened Def Con from 2.06396e-005 ++++++++++++++++to 2.06406e-005
Heightened Def Con from 2.06406e-005 ++++++++++++++++to 2.06416e-005
Heightened Def Con from 2.06416e-005 ++++++++++++++++to 2.06426e-005
Heightened Def Con from 2.06426e-005 ++++++++++++++++to 2.06436e-005
Heightened Def Con from 2.06436e-005 ++++++++++++++++to 2.06446e-005
Heightened Def Con from 2.06446e-005 ++++++++++++++++to 2.06456e-005
Heightened Def Con from 2.06456e-005 ++++++++++++++++to 2.06466e-005
Heightened Def Con from 2.06466e-005 ++++++++++++++++to 2.06476e-005
Heightened Def Con from 2.06476e-005 ++++++++++++++++to 2.06486e-005
Heightened Def Con from 2.06486e-005 ++++++++++++++++to 2.06496e-005
Heightened Def Con from 2.06496e-005 ++++++++++++++++to 2.06506e-005
Heightened Def Con from 2.06506e-005 ++++++++++++++++to 2.06516e-005
Heightened Def Con from 2.06516e-005 ++++++++++++++++to 2.06526e-005
Heightened Def Con from 2.06526e-005 ++++++++++++++++to 2.06536e-005
Heightened Def Con from 2.06536e-005 ++++++++++++++++to 2.06546e-005
Heightened Def Con from 2.06546e-005 ++++++++++++++++to 2.06556e-005
Heightened Def Con from 2.06556e-005 ++++++++++++++++to 2.06566e-005
Heightened Def Con from 2.06566e-005 ++++++++++++++++to 2.06576e-005
Heightened Def Con from 2.06576e-005 ++++++++++++++++to 2.06586e-005
Heightened Def Con from 2.06586e-005 ++++++++++++++++to 2.06596e-005
Heightened Def Con from 2.06596e-005 ++++++++++++++++to 2.06606e-005
Heightened Def Con from 2.06606e-005 ++++++++++++++++to 2.06616e-005
Heightened Def Con from 2.06616e-005 ++++++++++++++++to 2.06626e-005
Heightened Def Con from 2.06626e-005 ++++++++++++++++to 2.06636e-005
Heightened Def Con from 2.06636e-005 ++++++++++++++++to 2.06646e-005
Heightened Def Con from 2.06646e-005 ++++++++++++++++to 2.06656e-005
Heightened Def Con from 2.06656e-005 ++++++++++++++++to 2.06666e-005
Heightened Def Con from 2.06666e-005 ++++++++++++++++to 2.06676e-005
Heightened Def Con from 2.06676e-005 ++++++++++++++++to 2.06686e-005
Heightened Def Con from 2.06686e-005 ++++++++++++++++to 2.06696e-005
Heightened Def Con from 2.06696e-005 ++++++++++++++++to 2.06706e-005
Heightened Def Con from 2.06706e-005 ++++++++++++++++to 2.06716e-005
Heightened Def Con from 2.06716e-005 ++++++++++++++++to 2.06726e-005
Heightened Def Con from 2.06726e-005 ++++++++++++++++to 2.06736e-005
Heightened Def Con from 2.06736e-005 ++++++++++++++++to 2.06746e-005
Heightened Def Con from 2.06746e-005 ++++++++++++++++to 2.06756e-005
Heightened Def Con from 2.06756e-005 ++++++++++++++++to 2.06766e-005
Heightened Def Con from 2.06766e-005 ++++++++++++++++to 2.06776e-005
Heightened Def Con from 2.06776e-005 ++++++++++++++++to 2.06786e-005
Heightened Def Con from 2.06786e-005 ++++++++++++++++to 2.06796e-005
Heightened Def Con from 2.06796e-005 ++++++++++++++++to 2.06806e-005
Heightened Def Con from 2.06806e-005 ++++++++++++++++to 2.06816e-005
Heightened Def Con from 2.06816e-005 ++++++++++++++++to 2.06826e-005
Heightened Def Con from 2.06826e-005 ++++++++++++++++to 2.06836e-005
Heightened Def Con from 2.06836e-005 ++++++++++++++++to 2.06846e-005
Heightened Def Con from 2.06846e-005 ++++++++++++++++to 2.06856e-005
Heightened Def Con from 2.06856e-005 ++++++++++++++++to 2.06866e-005
Heightened Def Con from 2.06866e-005 ++++++++++++++++to 2.06876e-005
Heightened Def Con from 2.06876e-005 ++++++++++++++++to 2.06886e-005
Heightened Def Con from 2.06886e-005 ++++++++++++++++to 2.06896e-005
Heightened Def Con from 2.06896e-005 ++++++++++++++++to 2.06906e-005
Heightened Def Con from 2.06906e-005 ++++++++++++++++to 2.06916e-005
Heightened Def Con from 2.06916e-005 ++++++++++++++++to 2.06926e-005
Heightened Def Con from 2.06926e-005 ++++++++++++++++to 2.06936e-005
Heightened Def Con from 2.06936e-005 ++++++++++++++++to 2.06946e-005
Heightened Def Con from 2.06946e-005 ++++++++++++++++to 2.06956e-005
Heightened Def Con from 2.06956e-005 ++++++++++++++++to 2.06966e-005
Heightened Def Con from 2.06966e-005 ++++++++++++++++to 2.06976e-005
Heightened Def Con from 2.06976e-005 ++++++++++++++++to 2.06986e-005
Heightened Def Con from 2.06986e-005 ++++++++++++++++to 2.06996e-005
Heightened Def Con from 2.06996e-005 ++++++++++++++++to 2.07006e-005
Heightened Def Con from 2.07006e-005 ++++++++++++++++to 2.07016e-005
Heightened Def Con from 2.07016e-005 ++++++++++++++++to 2.07026e-005
Heightened Def Con from 2.07026e-005 ++++++++++++++++to 2.07036e-005
Heightened Def Con from 2.07036e-005 ++++++++++++++++to 2.07046e-005
Heightened Def Con from 2.07046e-005 ++++++++++++++++to 2.07056e-005
Heightened Def Con from 2.07056e-005 ++++++++++++++++to 2.07066e-005
Heightened Def Con from 2.10958e-005 ++++++++++++++++to 2.10968e-005
Heightened Def Con from 2.10968e-005 ++++++++++++++++to 2.10978e-005
Heightened Def Con from 2.10978e-005 ++++++++++++++++to 2.10988e-005
Heightened Def Con from 2.10988e-005 ++++++++++++++++to 2.10998e-005
Heightened Def Con from 2.10998e-005 ++++++++++++++++to 2.11008e-005
Heightened Def Con from 2.11008e-005 ++++++++++++++++to 2.11018e-005
Heightened Def Con from 2.11018e-005 ++++++++++++++++to 2.11028e-005
Heightened Def Con from 2.11028e-005 ++++++++++++++++to 2.11038e-005
Heightened Def Con from 2.11038e-005 ++++++++++++++++to 2.11048e-005
Heightened Def Con from 2.11048e-005 ++++++++++++++++to 2.11058e-005
Heightened Def Con from 2.11058e-005 ++++++++++++++++to 2.11068e-005
Heightened Def Con from 2.11068e-005 ++++++++++++++++to 2.11078e-005
Heightened Def Con from 2.11078e-005 ++++++++++++++++to 2.11088e-005
Heightened Def Con from 2.11088e-005 ++++++++++++++++to 2.11098e-005
Heightened Def Con from 2.11098e-005 ++++++++++++++++to 2.11108e-005
Heightened Def Con from 2.11108e-005 ++++++++++++++++to 2.11118e-005
Heightened Def Con from 2.11118e-005 ++++++++++++++++to 2.11128e-005
Heightened Def Con from 2.11128e-005 ++++++++++++++++to 2.11138e-005
Heightened Def Con from 2.11138e-005 ++++++++++++++++to 2.11148e-005
Heightened Def Con from 2.11148e-005 ++++++++++++++++to 2.11158e-005
Heightened Def Con from 2.11158e-005 ++++++++++++++++to 2.11168e-005
Heightened Def Con from 2.11168e-005 ++++++++++++++++to 2.11178e-005
Heightened Def Con from 2.11178e-005 ++++++++++++++++to 2.11188e-005
Heightened Def Con from 2.11188e-005 ++++++++++++++++to 2.11198e-005
Heightened Def Con from 2.11198e-005 ++++++++++++++++to 2.11208e-005
Heightened Def Con from 2.11208e-005 ++++++++++++++++to 2.11218e-005
Heightened Def Con from 2.11218e-005 ++++++++++++++++to 2.11228e-005
Heightened Def Con from 2.11228e-005 ++++++++++++++++to 2.11238e-005
Heightened Def Con from 2.11238e-005 ++++++++++++++++to 2.11248e-005
Heightened Def Con from 2.11248e-005 ++++++++++++++++to 2.11258e-005
Heightened Def Con from 2.11258e-005 ++++++++++++++++to 2.11268e-005
Heightened Def Con from 2.11268e-005 ++++++++++++++++to 2.11278e-005
Heightened Def Con from 2.11278e-005 ++++++++++++++++to 2.11288e-005
Heightened Def Con from 2.11288e-005 ++++++++++++++++to 2.11298e-005
Heightened Def Con from 2.11298e-005 ++++++++++++++++to 2.11308e-005
Heightened Def Con from 2.11308e-005 ++++++++++++++++to 2.11318e-005
Heightened Def Con from 2.11318e-005 ++++++++++++++++to 2.11328e-005
Heightened Def Con from 2.11328e-005 ++++++++++++++++to 2.11338e-005
Heightened Def Con from 2.11338e-005 ++++++++++++++++to 2.11348e-005
Heightened Def Con from 2.11348e-005 ++++++++++++++++to 2.11358e-005
Heightened Def Con from 2.11358e-005 ++++++++++++++++to 2.11368e-005
Heightened Def Con from 2.11368e-005 ++++++++++++++++to 2.11378e-005
Heightened Def Con from 2.11378e-005 ++++++++++++++++to 2.11388e-005
Heightened Def Con from 2.11388e-005 ++++++++++++++++to 2.11398e-005
Heightened Def Con from 2.11398e-005 ++++++++++++++++to 2.11408e-005
Heightened Def Con from 2.11408e-005 ++++++++++++++++to 2.11418e-005
Heightened Def Con from 2.11418e-005 ++++++++++++++++to 2.11428e-005
Heightened Def Con from 2.11428e-005 ++++++++++++++++to 2.11438e-005
Heightened Def Con from 2.11438e-005 ++++++++++++++++to 2.11448e-005
Heightened Def Con from 2.11448e-005 ++++++++++++++++to 2.11458e-005
Heightened Def Con from 2.11458e-005 ++++++++++++++++to 2.11468e-005
Heightened Def Con from 2.11468e-005 ++++++++++++++++to 2.11478e-005
Heightened Def Con from 2.11478e-005 ++++++++++++++++to 2.11488e-005
Heightened Def Con from 2.11488e-005 ++++++++++++++++to 2.11498e-005
Heightened Def Con from 2.11498e-005 ++++++++++++++++to 2.11508e-005
Heightened Def Con from 2.11508e-005 ++++++++++++++++to 2.11518e-005
Heightened Def Con from 2.11518e-005 ++++++++++++++++to 2.11528e-005
Heightened Def Con from 2.11528e-005 ++++++++++++++++to 2.11548e-005
Heightened Def Con from 2.11548e-005 ++++++++++++++++to 2.11568e-005
Heightened Def Con from 2.11568e-005 ++++++++++++++++to 2.11588e-005
Heightened Def Con from 2.11588e-005 ++++++++++++++++to 2.11608e-005
Heightened Def Con from 2.11608e-005 ++++++++++++++++to 2.11628e-005
Heightened Def Con from 2.11628e-005 ++++++++++++++++to 2.11648e-005
Heightened Def Con from 2.11648e-005 ++++++++++++++++to 2.11668e-005
Heightened Def Con from 2.11668e-005 ++++++++++++++++to 2.11688e-005
Heightened Def Con from 2.11688e-005 ++++++++++++++++to 2.11708e-005
Heightened Def Con from 2.11708e-005 ++++++++++++++++to 2.11728e-005
Heightened Def Con from 2.11728e-005 ++++++++++++++++to 2.11748e-005
Heightened Def Con from 2.11748e-005 ++++++++++++++++to 2.11768e-005
Heightened Def Con from 2.11768e-005 ++++++++++++++++to 2.11798e-005
Heightened Def Con from 2.11798e-005 ++++++++++++++++to 2.11828e-005
Heightened Def Con from 2.11828e-005 ++++++++++++++++to 2.11858e-005
Heightened Def Con from 2.11858e-005 ++++++++++++++++to 2.11888e-005
Heightened Def Con from 2.11888e-005 ++++++++++++++++to 2.11918e-005
Heightened Def Con from 2.11918e-005 ++++++++++++++++to 2.11948e-005
Heightened Def Con from 2.11948e-005 ++++++++++++++++to 2.11978e-005
Heightened Def Con from 2.11978e-005 ++++++++++++++++to 2.12008e-005
Heightened Def Con from 2.12008e-005 ++++++++++++++++to 2.12038e-005
Heightened Def Con from 2.12038e-005 ++++++++++++++++to 2.12068e-005
Heightened Def Con from 2.12068e-005 ++++++++++++++++to 2.12098e-005
Heightened Def Con from 2.12098e-005 ++++++++++++++++to 2.12128e-005
Heightened Def Con from 2.12128e-005 ++++++++++++++++to 2.12158e-005
Heightened Def Con from 2.12158e-005 ++++++++++++++++to 2.12188e-005
Heightened Def Con from 2.12188e-005 ++++++++++++++++to 2.12218e-005
Heightened Def Con from 2.12218e-005 ++++++++++++++++to 2.12248e-005
Heightened Def Con from 2.12248e-005 ++++++++++++++++to 2.12278e-005
Heightened Def Con from 2.12278e-005 ++++++++++++++++to 2.12308e-005
Heightened Def Con from 2.12308e-005 ++++++++++++++++to 2.12338e-005
Heightened Def Con from 2.12338e-005 ++++++++++++++++to 2.12368e-005
Heightened Def Con from 2.12368e-005 ++++++++++++++++to 2.12398e-005
Heightened Def Con from 2.12398e-005 ++++++++++++++++to 2.12428e-005
Heightened Def Con from 2.12428e-005 ++++++++++++++++to 2.12448e-005
Heightened Def Con from 2.12448e-005 ++++++++++++++++to 2.12468e-005
Heightened Def Con from 2.12468e-005 ++++++++++++++++to 2.12488e-005
Heightened Def Con from 2.12488e-005 ++++++++++++++++to 2.12508e-005
Heightened Def Con from 2.12508e-005 ++++++++++++++++to 2.12528e-005
Heightened Def Con from 2.12528e-005 ++++++++++++++++to 2.12548e-005
Heightened Def Con from 2.12548e-005 ++++++++++++++++to 2.12568e-005
Heightened Def Con from 2.12568e-005 ++++++++++++++++to 2.12588e-005
Heightened Def Con from 2.12588e-005 ++++++++++++++++to 2.12608e-005
Heightened Def Con from 2.12608e-005 ++++++++++++++++to 2.12628e-005
Heightened Def Con from 2.12628e-005 ++++++++++++++++to 2.12648e-005
Heightened Def Con from 2.12648e-005 ++++++++++++++++to 2.12668e-005
Heightened Def Con from 2.12668e-005 ++++++++++++++++to 2.12688e-005
Heightened Def Con from 2.12688e-005 ++++++++++++++++to 2.12708e-005
Heightened Def Con from 2.12708e-005 ++++++++++++++++to 2.12718e-005
Heightened Def Con from 2.12718e-005 ++++++++++++++++to 2.12728e-005
Heightened Def Con from 2.12728e-005 ++++++++++++++++to 2.12738e-005
Heightened Def Con from 2.12738e-005 ++++++++++++++++to 2.12748e-005
Heightened Def Con from 2.12748e-005 ++++++++++++++++to 2.12758e-005
Heightened Def Con from 2.12758e-005 ++++++++++++++++to 2.12768e-005
Heightened Def Con from 2.12768e-005 ++++++++++++++++to 2.12778e-005
Heightened Def Con from 2.12778e-005 ++++++++++++++++to 2.12788e-005
Heightened Def Con from 2.12788e-005 ++++++++++++++++to 2.12798e-005
Heightened Def Con from 2.12798e-005 ++++++++++++++++to 2.12808e-005
Heightened Def Con from 2.12808e-005 ++++++++++++++++to 2.12818e-005
Heightened Def Con from 2.12818e-005 ++++++++++++++++to 2.12828e-005
Heightened Def Con from 2.12828e-005 ++++++++++++++++to 2.12838e-005
Heightened Def Con from 2.12838e-005 ++++++++++++++++to 2.12848e-005
Heightened Def Con from 2.12848e-005 ++++++++++++++++to 2.12858e-005
Heightened Def Con from 2.12858e-005 ++++++++++++++++to 2.12868e-005
Heightened Def Con from 2.12868e-005 ++++++++++++++++to 2.12878e-005
Heightened Def Con from 2.12878e-005 ++++++++++++++++to 2.12888e-005
Heightened Def Con from 2.12888e-005 ++++++++++++++++to 2.12898e-005
Heightened Def Con from 2.12898e-005 ++++++++++++++++to 2.12908e-005
Heightened Def Con from 2.12908e-005 ++++++++++++++++to 2.12918e-005
Heightened Def Con from 2.12918e-005 ++++++++++++++++to 2.12928e-005
Heightened Def Con from 2.12928e-005 ++++++++++++++++to 2.12938e-005
Heightened Def Con from 2.12938e-005 ++++++++++++++++to 2.12948e-005
Heightened Def Con from 2.12948e-005 ++++++++++++++++to 2.12958e-005
Heightened Def Con from 2.12958e-005 ++++++++++++++++to 2.12968e-005
Heightened Def Con from 2.12968e-005 ++++++++++++++++to 2.12978e-005
Heightened Def Con from 2.12978e-005 ++++++++++++++++to 2.12988e-005
Heightened Def Con from 2.12988e-005 ++++++++++++++++to 2.12998e-005
Heightened Def Con from 2.12998e-005 ++++++++++++++++to 2.13008e-005
Heightened Def Con from 2.13008e-005 ++++++++++++++++to 2.13018e-005
Heightened Def Con from 2.13018e-005 ++++++++++++++++to 2.13028e-005
Heightened Def Con from 2.13028e-005 ++++++++++++++++to 2.13038e-005
Heightened Def Con from 2.13038e-005 ++++++++++++++++to 2.13048e-005
Heightened Def Con from 2.13048e-005 ++++++++++++++++to 2.13058e-005
Heightened Def Con from 2.13058e-005 ++++++++++++++++to 2.13068e-005
Heightened Def Con from 2.13068e-005 ++++++++++++++++to 2.13078e-005
Heightened Def Con from 2.13078e-005 ++++++++++++++++to 2.13088e-005
Heightened Def Con from 2.13088e-005 ++++++++++++++++to 2.13098e-005
Heightened Def Con from 2.13098e-005 ++++++++++++++++to 2.13108e-005
Heightened Def Con from 2.13108e-005 ++++++++++++++++to 2.13118e-005
Heightened Def Con from 2.13118e-005 ++++++++++++++++to 2.13128e-005
Heightened Def Con from 2.13128e-005 ++++++++++++++++to 2.13138e-005
Heightened Def Con from 2.13138e-005 ++++++++++++++++to 2.13148e-005
Heightened Def Con from 2.13148e-005 ++++++++++++++++to 2.13158e-005
Heightened Def Con from 2.13158e-005 ++++++++++++++++to 2.13168e-005
Heightened Def Con from 2.13168e-005 ++++++++++++++++to 2.13178e-005
Heightened Def Con from 2.13178e-005 ++++++++++++++++to 2.13188e-005
Heightened Def Con from 2.13188e-005 ++++++++++++++++to 2.13198e-005
Heightened Def Con from 2.13198e-005 ++++++++++++++++to 2.13208e-005
Heightened Def Con from 2.13208e-005 ++++++++++++++++to 2.13218e-005
Heightened Def Con from 2.13218e-005 ++++++++++++++++to 2.13228e-005
Heightened Def Con from 2.13228e-005 ++++++++++++++++to 2.13238e-005
Heightened Def Con from 2.13238e-005 ++++++++++++++++to 2.13248e-005
Heightened Def Con from 2.13248e-005 ++++++++++++++++to 2.13258e-005
Heightened Def Con from 2.13258e-005 ++++++++++++++++to 2.13268e-005
Heightened Def Con from 2.13268e-005 ++++++++++++++++to 2.13278e-005
Heightened Def Con from 2.13278e-005 ++++++++++++++++to 2.13288e-005
Heightened Def Con from 2.13288e-005 ++++++++++++++++to 2.13298e-005
Heightened Def Con from 2.13298e-005 ++++++++++++++++to 2.13308e-005
Heightened Def Con from 2.13308e-005 ++++++++++++++++to 2.13318e-005
Heightened Def Con from 2.13318e-005 ++++++++++++++++to 2.13328e-005
Heightened Def Con from 2.13328e-005 ++++++++++++++++to 2.13338e-005
Heightened Def Con from 2.13338e-005 ++++++++++++++++to 2.13348e-005
Heightened Def Con from 2.13348e-005 ++++++++++++++++to 2.13358e-005
Heightened Def Con from 2.13358e-005 ++++++++++++++++to 2.13368e-005
Heightened Def Con from 2.13368e-005 ++++++++++++++++to 2.13378e-005
Heightened Def Con from 2.13378e-005 ++++++++++++++++to 2.13388e-005
Heightened Def Con from 2.13388e-005 ++++++++++++++++to 2.13398e-005
Heightened Def Con from 2.13398e-005 ++++++++++++++++to 2.13408e-005
Heightened Def Con from 2.13408e-005 ++++++++++++++++to 2.13418e-005
Heightened Def Con from 2.13418e-005 ++++++++++++++++to 2.13428e-005
Heightened Def Con from 2.13428e-005 ++++++++++++++++to 2.13438e-005
Heightened Def Con from 2.13438e-005 ++++++++++++++++to 2.13448e-005
Heightened Def Con from 2.13448e-005 ++++++++++++++++to 2.13458e-005
Heightened Def Con from 2.13458e-005 ++++++++++++++++to 2.13468e-005
Heightened Def Con from 2.13468e-005 ++++++++++++++++to 2.13478e-005
Heightened Def Con from 2.13478e-005 ++++++++++++++++to 2.13488e-005
Heightened Def Con from 2.13488e-005 ++++++++++++++++to 2.13498e-005
Heightened Def Con from 2.13498e-005 ++++++++++++++++to 2.13508e-005
Heightened Def Con from 2.13508e-005 ++++++++++++++++to 2.13518e-005
Heightened Def Con from 2.13518e-005 ++++++++++++++++to 2.13528e-005
Heightened Def Con from 2.13528e-005 ++++++++++++++++to 2.13538e-005
Heightened Def Con from 2.13538e-005 ++++++++++++++++to 2.13548e-005
Heightened Def Con from 2.13548e-005 ++++++++++++++++to 2.13558e-005
Heightened Def Con from 2.13558e-005 ++++++++++++++++to 2.13568e-005
Heightened Def Con from 2.13568e-005 ++++++++++++++++to 2.13578e-005
Heightened Def Con from 2.13578e-005 ++++++++++++++++to 2.13588e-005
Heightened Def Con from 2.13588e-005 ++++++++++++++++to 2.13598e-005
Heightened Def Con from 2.13598e-005 ++++++++++++++++to 2.13608e-005
Heightened Def Con from 2.13608e-005 ++++++++++++++++to 2.13618e-005
Heightened Def Con from 2.13618e-005 ++++++++++++++++to 2.13628e-005
Heightened Def Con from 2.13628e-005 ++++++++++++++++to 2.13638e-005
Heightened Def Con from 2.13638e-005 ++++++++++++++++to 2.13648e-005
Heightened Def Con from 2.13648e-005 ++++++++++++++++to 2.13658e-005
Heightened Def Con from 2.13658e-005 ++++++++++++++++to 2.13668e-005
Heightened Def Con from 2.13668e-005 ++++++++++++++++to 2.13678e-005
Heightened Def Con from 2.13678e-005 ++++++++++++++++to 2.13688e-005
Heightened Def Con from 2.13688e-005 ++++++++++++++++to 2.13698e-005
Heightened Def Con from 2.13698e-005 ++++++++++++++++to 2.13708e-005
Heightened Def Con from 2.13708e-005 ++++++++++++++++to 2.13718e-005
Heightened Def Con from 2.13718e-005 ++++++++++++++++to 2.13728e-005
Heightened Def Con from 2.13728e-005 ++++++++++++++++to 2.13738e-005
Heightened Def Con from 2.13738e-005 ++++++++++++++++to 2.13748e-005
Heightened Def Con from 2.13748e-005 ++++++++++++++++to 2.13758e-005
Heightened Def Con from 2.13758e-005 ++++++++++++++++to 2.13768e-005
Heightened Def Con from 2.13768e-005 ++++++++++++++++to 2.13778e-005
Heightened Def Con from 2.13778e-005 ++++++++++++++++to 2.13788e-005
Heightened Def Con from 2.13788e-005 ++++++++++++++++to 2.13798e-005
Heightened Def Con from 2.13798e-005 ++++++++++++++++to 2.13808e-005
Heightened Def Con from 2.13808e-005 ++++++++++++++++to 2.13818e-005
Heightened Def Con from 2.13818e-005 ++++++++++++++++to 2.13828e-005
Heightened Def Con from 2.13828e-005 ++++++++++++++++to 2.13838e-005
Heightened Def Con from 2.13838e-005 ++++++++++++++++to 2.13848e-005
Heightened Def Con from 2.13848e-005 ++++++++++++++++to 2.13858e-005
Heightened Def Con from 2.13858e-005 ++++++++++++++++to 2.13868e-005
Heightened Def Con from 2.13868e-005 ++++++++++++++++to 2.13878e-005
Heightened Def Con from 2.13878e-005 ++++++++++++++++to 2.13888e-005
Heightened Def Con from 2.13888e-005 ++++++++++++++++to 2.13898e-005
Heightened Def Con from 2.13898e-005 ++++++++++++++++to 2.13908e-005
Heightened Def Con from 2.13908e-005 ++++++++++++++++to 2.13918e-005
Heightened Def Con from 2.13918e-005 ++++++++++++++++to 2.13928e-005
Heightened Def Con from 2.13928e-005 ++++++++++++++++to 2.13938e-005
Heightened Def Con from 2.13938e-005 ++++++++++++++++to 2.13948e-005
Heightened Def Con from 2.13948e-005 ++++++++++++++++to 2.13958e-005
Heightened Def Con from 2.13958e-005 ++++++++++++++++to 2.13968e-005
Heightened Def Con from 2.13968e-005 ++++++++++++++++to 2.13978e-005
Heightened Def Con from 2.13978e-005 ++++++++++++++++to 2.13988e-005
Heightened Def Con from 2.13988e-005 ++++++++++++++++to 2.13998e-005
Heightened Def Con from 2.13998e-005 ++++++++++++++++to 2.14008e-005
Heightened Def Con from 2.14008e-005 ++++++++++++++++to 2.14018e-005
Heightened Def Con from 2.14018e-005 ++++++++++++++++to 2.14028e-005
Heightened Def Con from 2.14028e-005 ++++++++++++++++to 2.14038e-005
Heightened Def Con from 2.14038e-005 ++++++++++++++++to 2.14048e-005
Heightened Def Con from 2.14048e-005 ++++++++++++++++to 2.14058e-005
Heightened Def Con from 2.14058e-005 ++++++++++++++++to 2.14068e-005
Heightened Def Con from 2.14068e-005 ++++++++++++++++to 2.14078e-005
Heightened Def Con from 2.14078e-005 ++++++++++++++++to 2.14088e-005
Heightened Def Con from 2.14088e-005 ++++++++++++++++to 2.14098e-005
Heightened Def Con from 2.14098e-005 ++++++++++++++++to 2.14108e-005
Heightened Def Con from 2.14108e-005 ++++++++++++++++to 2.14118e-005
Heightened Def Con from 2.14118e-005 ++++++++++++++++to 2.14128e-005
Heightened Def Con from 2.14128e-005 ++++++++++++++++to 2.14138e-005
Heightened Def Con from 2.14138e-005 ++++++++++++++++to 2.14148e-005
Heightened Def Con from 2.14148e-005 ++++++++++++++++to 2.14158e-005
Heightened Def Con from 2.14158e-005 ++++++++++++++++to 2.14168e-005
Heightened Def Con from 2.14168e-005 ++++++++++++++++to 2.14178e-005
Heightened Def Con from 2.14178e-005 ++++++++++++++++to 2.14188e-005
Heightened Def Con from 2.14188e-005 ++++++++++++++++to 2.14198e-005
Heightened Def Con from 2.14198e-005 ++++++++++++++++to 2.14208e-005
Heightened Def Con from 2.14208e-005 ++++++++++++++++to 2.14218e-005
Heightened Def Con from 2.14218e-005 ++++++++++++++++to 2.14228e-005
Heightened Def Con from 2.14228e-005 ++++++++++++++++to 2.14238e-005
Heightened Def Con from 2.14238e-005 ++++++++++++++++to 2.14248e-005
Heightened Def Con from 2.14248e-005 ++++++++++++++++to 2.14258e-005
Heightened Def Con from 2.14258e-005 ++++++++++++++++to 2.14268e-005
Heightened Def Con from 2.14268e-005 ++++++++++++++++to 2.14278e-005
Heightened Def Con from 2.14278e-005 ++++++++++++++++to 2.14288e-005
Heightened Def Con from 2.14288e-005 ++++++++++++++++to 2.14298e-005
Heightened Def Con from 2.14298e-005 ++++++++++++++++to 2.14308e-005
Heightened Def Con from 2.14308e-005 ++++++++++++++++to 2.14318e-005
Heightened Def Con from 2.14318e-005 ++++++++++++++++to 2.14328e-005
Heightened Def Con from 2.14328e-005 ++++++++++++++++to 2.14338e-005
Heightened Def Con from 2.14338e-005 ++++++++++++++++to 2.14348e-005
Heightened Def Con from 2.14348e-005 ++++++++++++++++to 2.14358e-005
Heightened Def Con from 2.14358e-005 ++++++++++++++++to 2.14368e-005
Heightened Def Con from 2.14368e-005 ++++++++++++++++to 2.14378e-005
Heightened Def Con from 2.14378e-005 ++++++++++++++++to 2.14388e-005
Heightened Def Con from 2.14388e-005 ++++++++++++++++to 2.14398e-005
Heightened Def Con from 2.14398e-005 ++++++++++++++++to 2.14408e-005
Heightened Def Con from 2.14408e-005 ++++++++++++++++to 2.14418e-005
Heightened Def Con from 2.14418e-005 ++++++++++++++++to 2.14428e-005
Heightened Def Con from 2.14428e-005 ++++++++++++++++to 2.14438e-005
Heightened Def Con from 2.14438e-005 ++++++++++++++++to 2.14448e-005
Heightened Def Con from 2.14448e-005 ++++++++++++++++to 2.14458e-005
Heightened Def Con from 2.14458e-005 ++++++++++++++++to 2.14468e-005
Heightened Def Con from 2.14468e-005 ++++++++++++++++to 2.14478e-005
Heightened Def Con from 2.14478e-005 ++++++++++++++++to 2.14488e-005
Heightened Def Con from 2.14488e-005 ++++++++++++++++to 2.14498e-005
Heightened Def Con from 2.14498e-005 ++++++++++++++++to 2.14508e-005
Heightened Def Con from 2.14508e-005 ++++++++++++++++to 2.14518e-005
Heightened Def Con from 2.14518e-005 ++++++++++++++++to 2.14528e-005
Heightened Def Con from 2.14528e-005 ++++++++++++++++to 2.14538e-005
Heightened Def Con from 2.14538e-005 ++++++++++++++++to 2.14548e-005
Heightened Def Con from 2.14548e-005 ++++++++++++++++to 2.14558e-005
Heightened Def Con from 2.14558e-005 ++++++++++++++++to 2.14568e-005
Heightened Def Con from 2.14568e-005 ++++++++++++++++to 2.14578e-005
Heightened Def Con from 2.14578e-005 ++++++++++++++++to 2.14588e-005
Heightened Def Con from 2.14588e-005 ++++++++++++++++to 2.14598e-005
Heightened Def Con from 2.14598e-005 ++++++++++++++++to 2.14608e-005
Heightened Def Con from 2.14608e-005 ++++++++++++++++to 2.14618e-005
Heightened Def Con from 2.14618e-005 ++++++++++++++++to 2.14628e-005
Heightened Def Con from 2.14628e-005 ++++++++++++++++to 2.14638e-005
Heightened Def Con from 2.14638e-005 ++++++++++++++++to 2.14648e-005
Heightened Def Con from 2.14648e-005 ++++++++++++++++to 2.14658e-005
Heightened Def Con from 2.14658e-005 ++++++++++++++++to 2.14668e-005
Heightened Def Con from 2.14668e-005 ++++++++++++++++to 2.14678e-005
Heightened Def Con from 2.14678e-005 ++++++++++++++++to 2.14688e-005
Heightened Def Con from 2.14688e-005 ++++++++++++++++to 2.14698e-005
Heightened Def Con from 2.14698e-005 ++++++++++++++++to 2.14708e-005
Heightened Def Con from 2.14708e-005 ++++++++++++++++to 2.14718e-005
Heightened Def Con from 2.14718e-005 ++++++++++++++++to 2.14728e-005
Heightened Def Con from 2.14728e-005 ++++++++++++++++to 2.14738e-005
Heightened Def Con from 2.14738e-005 ++++++++++++++++to 2.14748e-005
Heightened Def Con from 2.14748e-005 ++++++++++++++++to 2.14758e-005
Heightened Def Con from 2.14758e-005 ++++++++++++++++to 2.14768e-005
Heightened Def Con from 2.14768e-005 ++++++++++++++++to 2.14778e-005
Heightened Def Con from 2.14778e-005 ++++++++++++++++to 2.14788e-005
Heightened Def Con from 2.14788e-005 ++++++++++++++++to 2.14798e-005
Heightened Def Con from 2.14798e-005 ++++++++++++++++to 2.14808e-005
Heightened Def Con from 2.14808e-005 ++++++++++++++++to 2.14818e-005
Heightened Def Con from 2.14818e-005 ++++++++++++++++to 2.14828e-005
Heightened Def Con from 2.14828e-005 ++++++++++++++++to 2.14838e-005
Heightened Def Con from 2.14838e-005 ++++++++++++++++to 2.14848e-005
Heightened Def Con from 2.14848e-005 ++++++++++++++++to 2.14858e-005
Heightened Def Con from 2.14858e-005 ++++++++++++++++to 2.14868e-005
Heightened Def Con from 2.14868e-005 ++++++++++++++++to 2.14878e-005
Heightened Def Con from 2.14878e-005 ++++++++++++++++to 2.14888e-005
Heightened Def Con from 2.14888e-005 ++++++++++++++++to 2.14898e-005
Heightened Def Con from 2.14898e-005 ++++++++++++++++to 2.14908e-005
Heightened Def Con from 2.14908e-005 ++++++++++++++++to 2.14918e-005
Heightened Def Con from 2.14918e-005 ++++++++++++++++to 2.14928e-005
Heightened Def Con from 2.14928e-005 ++++++++++++++++to 2.14938e-005
Heightened Def Con from 2.14938e-005 ++++++++++++++++to 2.14948e-005
Heightened Def Con from 2.14948e-005 ++++++++++++++++to 2.14958e-005
Heightened Def Con from 2.14958e-005 ++++++++++++++++to 2.14968e-005
Heightened Def Con from 2.14968e-005 ++++++++++++++++to 2.14978e-005
Heightened Def Con from 2.14978e-005 ++++++++++++++++to 2.14988e-005
Heightened Def Con from 2.14988e-005 ++++++++++++++++to 2.14998e-005
Heightened Def Con from 2.14998e-005 ++++++++++++++++to 2.15008e-005
Heightened Def Con from 2.15008e-005 ++++++++++++++++to 2.15018e-005
Heightened Def Con from 2.15018e-005 ++++++++++++++++to 2.15028e-005
Heightened Def Con from 2.15028e-005 ++++++++++++++++to 2.15038e-005
Heightened Def Con from 2.15038e-005 ++++++++++++++++to 2.15048e-005
Heightened Def Con from 2.15048e-005 ++++++++++++++++to 2.15058e-005
Heightened Def Con from 2.15058e-005 ++++++++++++++++to 2.15068e-005
Heightened Def Con from 2.15068e-005 ++++++++++++++++to 2.15078e-005
Heightened Def Con from 2.15078e-005 ++++++++++++++++to 2.15088e-005
Heightened Def Con from 2.15088e-005 ++++++++++++++++to 2.15098e-005
Heightened Def Con from 2.15098e-005 ++++++++++++++++to 2.15108e-005
Heightened Def Con from 2.15108e-005 ++++++++++++++++to 2.15118e-005
Heightened Def Con from 2.15118e-005 ++++++++++++++++to 2.15128e-005
Heightened Def Con from 2.15128e-005 ++++++++++++++++to 2.15138e-005
Heightened Def Con from 2.15138e-005 ++++++++++++++++to 2.15148e-005
Heightened Def Con from 2.15148e-005 ++++++++++++++++to 2.15158e-005
Heightened Def Con from 2.15158e-005 ++++++++++++++++to 2.15168e-005
Heightened Def Con from 2.15168e-005 ++++++++++++++++to 2.15178e-005
Heightened Def Con from 2.15178e-005 ++++++++++++++++to 2.15188e-005
Heightened Def Con from 2.15188e-005 ++++++++++++++++to 2.15198e-005
Heightened Def Con from 2.15198e-005 ++++++++++++++++to 2.15208e-005
Heightened Def Con from 2.15208e-005 ++++++++++++++++to 2.15218e-005
Heightened Def Con from 2.15218e-005 ++++++++++++++++to 2.15228e-005
Heightened Def Con from 2.15228e-005 ++++++++++++++++to 2.15238e-005
Heightened Def Con from 2.15238e-005 ++++++++++++++++to 2.15248e-005
Heightened Def Con from 2.15248e-005 ++++++++++++++++to 2.15258e-005
Heightened Def Con from 2.15258e-005 ++++++++++++++++to 2.15268e-005
Heightened Def Con from 2.15268e-005 ++++++++++++++++to 2.15278e-005
Heightened Def Con from 2.15278e-005 ++++++++++++++++to 2.15288e-005
Heightened Def Con from 2.15288e-005 ++++++++++++++++to 2.15298e-005
Heightened Def Con from 2.15298e-005 ++++++++++++++++to 2.15308e-005
Heightened Def Con from 2.15308e-005 ++++++++++++++++to 2.15318e-005
Heightened Def Con from 2.15318e-005 ++++++++++++++++to 2.15328e-005
Heightened Def Con from 2.15328e-005 ++++++++++++++++to 2.15338e-005
Heightened Def Con from 2.15338e-005 ++++++++++++++++to 2.15348e-005
Heightened Def Con from 2.15348e-005 ++++++++++++++++to 2.15358e-005
Heightened Def Con from 2.15358e-005 ++++++++++++++++to 2.15368e-005
Heightened Def Con from 2.15368e-005 ++++++++++++++++to 2.15378e-005
Heightened Def Con from 2.15378e-005 ++++++++++++++++to 2.15388e-005
Heightened Def Con from 2.15388e-005 ++++++++++++++++to 2.15398e-005
Heightened Def Con from 2.15398e-005 ++++++++++++++++to 2.15408e-005
Heightened Def Con from 2.15408e-005 ++++++++++++++++to 2.15418e-005
Heightened Def Con from 2.15418e-005 ++++++++++++++++to 2.15428e-005
Heightened Def Con from 2.15428e-005 ++++++++++++++++to 2.15438e-005
Heightened Def Con from 2.15438e-005 ++++++++++++++++to 2.15448e-005
Heightened Def Con from 2.15448e-005 ++++++++++++++++to 2.15458e-005
Heightened Def Con from 2.15458e-005 ++++++++++++++++to 2.15468e-005
Heightened Def Con from 2.15468e-005 ++++++++++++++++to 2.15478e-005
Heightened Def Con from 2.15478e-005 ++++++++++++++++to 2.15488e-005
Heightened Def Con from 2.15488e-005 ++++++++++++++++to 2.15498e-005
Heightened Def Con from 2.15498e-005 ++++++++++++++++to 2.15508e-005
Heightened Def Con from 2.15508e-005 ++++++++++++++++to 2.15518e-005
Heightened Def Con from 2.15518e-005 ++++++++++++++++to 2.15528e-005
Heightened Def Con from 2.15528e-005 ++++++++++++++++to 2.15538e-005
Heightened Def Con from 2.15538e-005 ++++++++++++++++to 2.15548e-005
Heightened Def Con from 2.15548e-005 ++++++++++++++++to 2.15558e-005
Heightened Def Con from 2.15558e-005 ++++++++++++++++to 2.15568e-005
Heightened Def Con from 2.15568e-005 ++++++++++++++++to 2.15578e-005
Heightened Def Con from 2.15578e-005 ++++++++++++++++to 2.15588e-005
Heightened Def Con from 2.15588e-005 ++++++++++++++++to 2.15598e-005
Heightened Def Con from 2.15598e-005 ++++++++++++++++to 2.15608e-005
Heightened Def Con from 2.20561e-005 ++++++++to 2.20561e-005
Heightened Def Con from 2.20563e-005 +++++++++++to 2.20563e-005
Heightened Def Con from 2.20614e-005 to 2.20614e-005



Date: Tue Jun 20 17:18:58 2023
Total elapsed time: 18.280 seconds.

tnom = 27
temp = 27
method = modified trap
totiter = 1113058
traniter = 1112442
tranpoints = 103071
accept = 11599
rejected = 100542
matrix size = 288
fillins = 454
solver = Normal
Thread vector: 15.2/8.3[4] 4.9/3.2[4] 4.0/2.9[4] 0.7/1.1[1]  2592/500
Matrix Compiler1: 39.69 KB object code size  7.5/2.3/[2.0]
Matrix Compiler2: 31.62 KB object code size  2.1/2.0/[1.4]

