Circuit: * C:\Users\joaqu\Desktop\Circuit-Design\LDOA_Regulator\Draft1.asc

Direct Newton iteration for .op point succeeded.

Date: Sat Jun 24 19:45:18 2023
Total elapsed time: 0.141 seconds.

tnom = 27
temp = 27
method = modified trap
totiter = 2111
traniter = 2098
tranpoints = 1050
accept = 1050
rejected = 0
matrix size = 14
fillins = 4
solver = Normal
Matrix Compiler1: 1.10 KB object code size  0.5/0.3/[0.3]
Matrix Compiler2: 1.21 KB object code size  0.3/0.5/[0.3]

