Circuit: * C:\Users\joaqu\Desktop\Circuit-Design\LDOA_Regulator\Regulador_LDOA_v7.asc

Early termination of direct N-R iteration.
Direct Newton iteration failed to find .op point.  (Use ".option noopiter" to skip.)
Starting Gmin stepping
Gmin = 10
Gmin = 1.07374
Gmin = 0.115292
Gmin = 0.0123794
Gmin = 0.00132923
Gmin = 0.000142725
Gmin = 1.5325e-005
vernier = 0.5
Gmin = 4.35418e-006
vernier = 0.666667
vernier = 0.888888
Gmin = 7.73794e-007
vernier = 1
Gmin = 8.6905e-008
Gmin = 9.33136e-009
Gmin = 1.00195e-009
Gmin = 1.07583e-010
Gmin = 1.15517e-011
Gmin = 1.24035e-012
Gmin = 1.33182e-013
Gmin = 0
Gmin stepping succeeded in finding the operating point.




Date: Fri Jun 02 20:45:39 2023
Total elapsed time: 0.774 seconds.

tnom = 27
temp = 27
method = modified trap
totiter = 3771
traniter = 3034
tranpoints = 1518
accept = 1518
rejected = 0
matrix size = 225
fillins = 359
solver = Normal
Thread vector: 14.3/8.2[3] 7.1/5.4[3] 5.1/2.7[3] 0.8/1.2[1]  2592/500
Matrix Compiler1: 29.79 KB object code size  7.3/3.6/[2.1]
Matrix Compiler2: 24.58 KB object code size  3.2/4.0/[1.8]

