Circuit: * C:\Users\joaqu\Desktop\Circuit-Design\LDOA_Regulator\Regulador_LDOA_v6.asc

Early termination of direct N-R iteration.
Direct Newton iteration failed to find .op point.  (Use ".option noopiter" to skip.)
Starting Gmin stepping
Gmin = 10
Gmin = 1.07374
Gmin = 0.115292
Gmin = 0.0123794
Gmin = 0.00132923
Gmin = 0.000142725
Gmin = 1.5325e-005
vernier = 0.5
vernier = 0.25
vernier = 0.125
vernier = 0.0625
Gmin = 5.02168e-006
vernier = 0.03125
vernier = 0.015625
vernier = 0.0208333
Gmin = 4.84859e-006
vernier = 0.0277778
vernier = 0.037037
Gmin = 4.53744e-006
vernier = 0.0493827
Gmin = 4.07524e-006
vernier = 0.0658435
vernier = 0.0877914
Gmin = 3.41975e-006
vernier = 0.117055
vernier = 0.156073
Gmin = 2.59373e-006
vernier = 0.208098
Gmin = 1.66218e-006
vernier = 0.277464
vernier = 0.369952
Gmin = 8.10299e-007
vernier = 0.493269
vernier = 0.657691
Gmin = 2.65626e-007
vernier = 0.876922
Gmin = 4.60562e-008
vernier = 1
Gmin = 5.07005e-009
Gmin = 5.44392e-010
Gmin = 5.84537e-011
Gmin = 6.27641e-012
Gmin = 6.73925e-013
Gmin = 0
Gmin stepping succeeded in finding the operating point.

Heightened Def Con from 0.01 ++++++++++++++++++++++++++++to 0.01
Heightened Def Con from 0.01 ++++++++++++++++++to 0.01
Heightened Def Con from 0.0100004 ++++to 0.0100004
Heightened Def Con from 0.0100004 +++++++to 0.0100004
Heightened Def Con from 0.0100004 ++++++++++to 0.0100004
Heightened Def Con from 0.0100004 +++++++++to 0.0100004
Heightened Def Con from 0.0100004 +++++++to 0.0100004
Heightened Def Con from 0.0100004 +++++++to 0.0100004
Heightened Def Con from 0.0100004 ++++++++++to 0.0100004
Heightened Def Con from 0.0100004 +++++++++to 0.0100004
Heightened Def Con from 0.0100004 ++++++++++to 0.0100004
Heightened Def Con from 0.0100004 ++++++++to 0.0100004
Heightened Def Con from 0.0100004 +++++++++to 0.0100004
Heightened Def Con from 0.0100004 ++++++++++to 0.0100004
Heightened Def Con from 0.0100004 ++++++++++to 0.0100004
Heightened Def Con from 0.0100004 +++++++++to 0.0100004
Heightened Def Con from 0.0100004 ++++++++to 0.0100004
Heightened Def Con from 0.0100004 +++++to 0.0100004
Heightened Def Con from 0.0100004 +++++++++to 0.0100004
Heightened Def Con from 0.0100004 ++++++++++to 0.0100004
Heightened Def Con from 0.0100004 ++++++++to 0.0100004
Heightened Def Con from 0.0100004 ++++++++++to 0.0100004
Heightened Def Con from 0.0100004 ++++++++++to 0.0100004
Heightened Def Con from 0.0100004 +++++++++to 0.0100004
Heightened Def Con from 0.0100004 +++++++to 0.0100004
Heightened Def Con from 0.0100004 ++++++++to 0.0100004
Heightened Def Con from 0.0100004 ++++++++to 0.0100004
Heightened Def Con from 0.0100004 ++++++++++to 0.0100004
Heightened Def Con from 0.0100004 ++++++++++to 0.0100004
Heightened Def Con from 0.0100004 ++++++++++to 0.0100004
Heightened Def Con from 0.0100004 ++++++++to 0.0100004
Heightened Def Con from 0.0100004 +++++++++to 0.0100004
Heightened Def Con from 0.0100004 +++++++++to 0.0100004
Heightened Def Con from 0.0100004 ++++++++++to 0.0100004
Heightened Def Con from 0.0100004 ++++++++++to 0.0100004
Heightened Def Con from 0.0100004 +++++++++to 0.0100004
Heightened Def Con from 0.0100004 ++++++++to 0.0100004
Heightened Def Con from 0.0100004 ++++++++++to 0.0100004
Heightened Def Con from 0.0100004 +++++++++to 0.0100004
Heightened Def Con from 0.0100004 ++to 0.0100004
Heightened Def Con from 0.0100004 ++++++++to 0.0100004
Heightened Def Con from 0.0100004 +++++++to 0.0100004
Heightened Def Con from 0.0100004 +++++++++to 0.0100004
Heightened Def Con from 0.0100004 ++++++++to 0.0100004
Heightened Def Con from 0.0100004 ++++++++to 0.0100004
Heightened Def Con from 0.0100004 +++++++++++to 0.0100004
Heightened Def Con from 0.0100004 +++++++++to 0.0100004
Heightened Def Con from 0.0100004 ++++++++++++to 0.0100004
Heightened Def Con from 0.0100004 +++++++++++to 0.0100004
Heightened Def Con from 0.0100004 ++++++++++++to 0.0100004
Heightened Def Con from 0.0100004 +++++++++++to 0.0100004
Heightened Def Con from 0.0100004 +++++++++++++to 0.0100004
Heightened Def Con from 0.0100004 +++++++++++++to 0.0100004
Heightened Def Con from 0.0100004 +++++++++++++to 0.0100004
Heightened Def Con from 0.0100004 ++++++++++++to 0.0100004
Heightened Def Con from 0.0100004 ++++++++++to 0.0100004
Heightened Def Con from 0.0100004 +++++++++to 0.0100004
Heightened Def Con from 0.0100004 ++++++++++to 0.0100004
Heightened Def Con from 0.0100004 ++++++++++++to 0.0100004
Heightened Def Con from 0.0100004 +++++++++++to 0.0100004
Heightened Def Con from 0.0100004 +++++++++++to 0.0100004
Heightened Def Con from 0.0100004 ++++++++++++++to 0.0100004
Heightened Def Con from 0.0100004 to 0.0100004



Date: Tue May 09 00:51:05 2023
Total elapsed time: 5.050 seconds.

tnom = 27
temp = 27
method = modified trap
totiter = 171662
traniter = 170317
tranpoints = 36490
accept = 22285
rejected = 14873
matrix size = 227
fillins = 558
solver = Normal
Thread vector: 22.4/12.2[3] 6.3/3.8[3] 6.4/4.7[3] 1.0/2.6[1]  2592/500
Matrix Compiler1: 42.97 KB object code size  10.2/4.6/[2.9]
Matrix Compiler2: 28.19 KB object code size  4.9/4.2/[1.9]

