Circuit: * C:\Users\joaqu\Desktop\Circuit-Design\LDOA_Regulator\Regulador_LDOA_v2_Cuasi_Darlington_selector_prueba.asc

Early termination of direct N-R iteration.
Direct Newton iteration failed to find .op point.  (Use ".option noopiter" to skip.)
Starting Gmin stepping
Gmin = 10
vernier = 0.5
vernier = 0.25
vernier = 0.125
Gmin = 5.5165
vernier = 0.0625
vernier = 0.03125
vernier = 0.015625
vernier = 0.0078125
Gmin = 5.48432
vernier = 0.00390625
vernier = 0.00195313
vernier = 0.000976563
vernier = 0.000488281
Gmin = 0
Gmin stepping failed

Starting source stepping with srcstepmethod=0
Source Step = 3.0303%
Source Step = 33.3333%
Source Step = 63.6364%
Source Step = 93.9394%
Source stepping succeeded in finding the operating point.




Date: Sat Apr 08 18:43:05 2023
Total elapsed time: 3.156 seconds.

tnom = 27
temp = 27
method = modified trap
totiter = 23198
traniter = 21485
tranpoints = 7962
accept = 5837
rejected = 2125
matrix size = 165
fillins = 1359
solver = Normal
Thread vector: 48.8/22.9[3] 3.5/4.0[1] 8.5/4.5[3] 3.4/5.3[1]  2592/500
Matrix Compiler1: 199.41 KB object code size  34.6/12.9/[8.0]
Matrix Compiler2: 38.42 KB object code size  13.4/12.8/[10.5]

