Circuit: * C:\Users\joaqu\Desktop\Circuit-Design\LDOA_Regulator\Regulador_LDOA_v7.asc

Early termination of direct N-R iteration.
Direct Newton iteration failed to find .op point.  (Use ".option noopiter" to skip.)
Starting Gmin stepping
Gmin = 10
Gmin = 1.07374
Gmin = 0.115292
Gmin = 0.0123794
Gmin = 0.00132923
Gmin = 0.000142725
Gmin = 1.5325e-005
vernier = 0.5
vernier = 0.25
Gmin = 6.15678e-006
vernier = 0.333333
vernier = 0.444444
Gmin = 2.61324e-006
vernier = 0.592592
vernier = 0.790123
Gmin = 6.94437e-007
vernier = 1
Gmin = 9.23953e-008
Gmin = 9.92087e-009
Gmin = 1.06525e-009
Gmin = 1.1438e-010
Gmin = 1.22814e-011
Gmin = 1.31871e-012
Gmin = 1.41595e-013
Gmin = 0
Gmin stepping succeeded in finding the operating point.

Heightened Def Con from 0.01 +++++++++++++++++++++++++++++to 0.01
Heightened Def Con from 0.01 ++++++++++++++++++to 0.01
Heightened Def Con from 0.0100004 ++to 0.0100004
Heightened Def Con from 0.0100004 to 0.0100004
Heightened Def Con from 0.0100004 to 0.0100004
Heightened Def Con from 0.0100004 to 0.0100004
Heightened Def Con from 0.0100004 to 0.0100004
Heightened Def Con from 0.0100004 to 0.0100004
Heightened Def Con from 0.0200019 to 0.0200019



Date: Tue May 09 23:12:43 2023
Total elapsed time: 0.885 seconds.

tnom = 27
temp = 27
method = modified trap
totiter = 10621
traniter = 9717
tranpoints = 2854
accept = 2282
rejected = 630
matrix size = 227
fillins = 482
solver = Normal
Thread vector: 23.3/13.3[3] 9.1/7.0[3] 5.1/3.7[3] 0.8/1.1[1]  2592/500
Matrix Compiler1: 39.00 KB object code size  11.4/5.3/[3.2]
Matrix Compiler2: 26.77 KB object code size  3.3/4.3/[1.8]

