Circuit: * D:\Uli\FIUBA\Materias\Diseño de Circuitos\Practica\Circuit-Design\LDOA_Regulator\Regulador_LDOA_v2_Cuasi_Darlington_selector.asc

Early termination of direct N-R iteration.
Direct Newton iteration failed to find .op point.  (Use ".option noopiter" to skip.)
Starting Gmin stepping
Gmin = 10
vernier = 0.5
vernier = 0.25
vernier = 0.125
Gmin = 5.5165
vernier = 0.0625
vernier = 0.03125
vernier = 0.015625
vernier = 0.0078125
Gmin = 5.48432
vernier = 0.00390625
vernier = 0.00195313
vernier = 0.000976563
vernier = 0.000488281
Gmin = 0
Gmin stepping failed

Starting source stepping with srcstepmethod=0
Source Step = 3.0303%
Source Step = 9.84848%
Source Step = 17.4242%
Source Step = 25%
Source Step = 32.5758%
Source Step = 40.1515%
vernier = 0.375
Source Step = 50.7576%
Source Step = 62.1212%
Source Step = 73.4848%
Source Step = 84.8485%
Source Step = 96.2121%
vernier = 0.5625
Source stepping succeeded in finding the operating point.




Date: Tue Apr 11 11:27:34 2023
Total elapsed time: 3.765 seconds.

tnom = 27
temp = 27
method = modified trap
totiter = 161834
traniter = 159730
tranpoints = 56411
accept = 39688
rejected = 16723
matrix size = 163
fillins = 1387
solver = Normal
Thread vector: 6.0/4.9[3] 2.5/2.0[3] 3.2/2.0[3] 0.8/1.5[1]  2592/500
Matrix Compiler1: 204.01 KB object code size  24.3/8.1/[6.3]
Matrix Compiler2: 38.74 KB object code size  4.7/2.7/[1.8]

