Circuit: * C:\Users\joaqu\Desktop\Circuit-Design\LDOA_Regulator\Regulador_LDOA_v5.asc

WARNING: Node NC_01 is floating.

WARNING: Less than two connections to node NC_01.  This node is used by L4.
Direct Newton iteration for .op point succeeded.
Ignoring empty pin current: Ix(u2:1)
Ignoring empty pin current: Ix(u2:2)
Ignoring empty pin current: Ix(u3:1)
Ignoring empty pin current: Ix(u3:2)
Ignoring empty pin current: Ix(u4:1)
Ignoring empty pin current: Ix(u4:2)
Ignoring empty pin current: Ix(u5:1)
Ignoring empty pin current: Ix(u5:2)
Ignoring empty pin current: Ix(u1:1)
Ignoring empty pin current: Ix(u1:2)
Ignoring empty pin current: Ix(u2:1)
Ignoring empty pin current: Ix(u2:2)
Ignoring empty pin current: Ix(u3:1)
Ignoring empty pin current: Ix(u3:2)
Ignoring empty pin current: Ix(u4:1)
Ignoring empty pin current: Ix(u4:2)
Ignoring empty pin current: Ix(u5:1)
Ignoring empty pin current: Ix(u5:2)
Ignoring empty pin current: Ix(u1:1)
Ignoring empty pin current: Ix(u1:2)



Date: Thu May 04 01:02:56 2023
Total elapsed time: 52.273 seconds.

tnom = 27
temp = 27
method = modified trap
totiter = 1000060
traniter = 1000035
tranpoints = 500018
accept = 500018
rejected = 0
matrix size = 75
fillins = 68
solver = Normal
Matrix Compiler1: 7.89 KB object code size  1.8/0.9/[0.6]
Matrix Compiler2: off  [0.6]/1.0/0.7

