Circuit: * D:\Uli\FIUBA\Materias\Diseño de Circuitos\TP\Circuit-Design\LDOA_Regulator\Regulador_LDOA_v4_Cuasi_Darlington_selector.asc

Direct Newton iteration for .op point succeeded.
Ignoring empty pin current: Ix(u2:1)
Ignoring empty pin current: Ix(u2:2)
Ignoring empty pin current: Ix(u3:1)
Ignoring empty pin current: Ix(u3:2)
Ignoring empty pin current: Ix(u4:1)
Ignoring empty pin current: Ix(u4:2)
Ignoring empty pin current: Ix(u5:1)
Ignoring empty pin current: Ix(u5:2)
Ignoring empty pin current: Ix(u1:1)
Ignoring empty pin current: Ix(u1:2)
Ignoring empty pin current: Ix(u2:1)
Ignoring empty pin current: Ix(u2:2)
Ignoring empty pin current: Ix(u3:1)
Ignoring empty pin current: Ix(u3:2)
Ignoring empty pin current: Ix(u4:1)
Ignoring empty pin current: Ix(u4:2)
Ignoring empty pin current: Ix(u5:1)
Ignoring empty pin current: Ix(u5:2)
Ignoring empty pin current: Ix(u1:1)
Ignoring empty pin current: Ix(u1:2)
Heightened Def Con from 0.103529 to 0.103529

Date: Fri Apr 28 14:00:54 2023
Total elapsed time: 7.919 seconds.

tnom = 27
temp = 27
method = modified trap
totiter = 207151
traniter = 207105
tranpoints = 103558
accept = 103548
rejected = 11
matrix size = 72
fillins = 72
solver = Normal
Matrix Compiler1:     442 opcodes  1.3/[0.5]/0.5
Matrix Compiler2: off  [0.3]/0.5/0.4

