Circuit: * D:\Uli\FIUBA\Materias\Diseño de Circuitos\TP\Circuit-Design\LDOA_Regulator\Testbench_LDOA.asc

Early termination of direct N-R iteration.
Direct Newton iteration failed to find .op point.  (Use ".option noopiter" to skip.)
Starting Gmin stepping
Gmin = 10
vernier = 0.5
Gmin = 1.67772
vernier = 0.25
vernier = 0.125
vernier = 0.0625
vernier = 0.03125
Gmin = 1.46828
vernier = 0.015625
vernier = 0.0208333
Gmin = 1.41035
vernier = 0.0104167
vernier = 0.00520833
vernier = 0.00260417
vernier = 0.00130208
Gmin = 1.4044
vernier = 0.000651042
vernier = 0.000488281
Gmin = 0
Gmin stepping succeeded in finding the operating point.

Ignoring empty pin current: Ix(u1:2)
Ignoring empty pin current: Ix(u1:1)
Ignoring empty pin current: Ix(u2:2)
Ignoring empty pin current: Ix(u2:3)
Ignoring empty pin current: Ix(u2:1)
Ignoring empty pin current: Ix(u1:2)
Ignoring empty pin current: Ix(u1:1)
Ignoring empty pin current: Ix(u2:2)
Ignoring empty pin current: Ix(u2:3)
Ignoring empty pin current: Ix(u2:1)

Date: Thu Jun 22 12:57:44 2023
Total elapsed time: 1.156 seconds.

tnom = 27
temp = 27
method = modified trap
totiter = 5358
traniter = 3209
tranpoints = 1369
accept = 1280
rejected = 89
matrix size = 217
fillins = 2023
solver = Normal
Thread vector: 9.7/7.3[3] 3.8/3.0[3] 3.9/3.3[3] 1.1/2.2[1]  2592/500
Matrix Compiler1: 270.67 KB object code size  34.2/10.9/[8.3]
Matrix Compiler2: 50.77 KB object code size  6.0/3.4/[2.5]

