Circuit: * D:\Uli\FIUBA\Materias\Diseño de Circuitos\TP\Circuit-Design\LDOA_Regulator\Testbench_LDOA_v3.asc

Rl1: both pins shorted together -- ignoring.
WARNING: Less than two connections to node VAR.  This node is used by V3.
Early termination of direct N-R iteration.
Direct Newton iteration failed to find .op point.  (Use ".option noopiter" to skip.)
Starting Gmin stepping
Gmin = 10
Gmin = 1.07374
vernier = 0.5
vernier = 0.25
Gmin = 0.509261
vernier = 0.125
vernier = 0.0625
vernier = 0.03125
vernier = 0.015625
vernier = 0.0078125
vernier = 0.00390625
vernier = 0.00195313
vernier = 0.000976563
vernier = 0.000488281
Gmin = 0.509261
Gmin = 0
Gmin stepping succeeded in finding the operating point.

Ignoring empty pin current: Ix(u1:2)
Ignoring empty pin current: Ix(u1:1)
Ignoring empty pin current: Ix(u2:2)
Ignoring empty pin current: Ix(u2:3)
Ignoring empty pin current: Ix(u2:1)
Ignoring empty pin current: Ix(u1:2)
Ignoring empty pin current: Ix(u1:1)
Ignoring empty pin current: Ix(u2:2)
Ignoring empty pin current: Ix(u2:3)
Ignoring empty pin current: Ix(u2:1)

Date: Tue Jul 11 20:00:09 2023
Total elapsed time: 0.856 seconds.

tnom = 27
temp = 27
method = modified trap
totiter = 4690
traniter = 3317
tranpoints = 1449
accept = 1338
rejected = 111
matrix size = 219
fillins = 2107
solver = Normal
Thread vector: 10.1/7.2[3] 3.8/3.0[3] 4.2/2.8[3] 1.2/2.3[1]  2592/500
Matrix Compiler1: 277.58 KB object code size  34.3/10.9/[8.7]
Matrix Compiler2:    3557 opcodes  6.8/[3.6]/4.9

