Circuit: * C:\Users\joaqu\Desktop\Circuit-Design\LDOA_Regulator\Testbench_LDOA_v2.asc

Early termination of direct N-R iteration.
Direct Newton iteration failed to find .op point.  (Use ".option noopiter" to skip.)
Starting Gmin stepping
Gmin = 10
vernier = 0.5
Gmin = 1.86414
vernier = 0.25
vernier = 0.333333
Gmin = 1.0828
vernier = 0.166667
vernier = 0.0833333
vernier = 0.0416667
vernier = 0.0208333
vernier = 0.0104167
vernier = 0.00520833
vernier = 0.00260417
vernier = 0.00130208
vernier = 0.000651042
Gmin = 1.0828
vernier = 0.000488281
Gmin = 0
Gmin stepping succeeded in finding the operating point.

Ignoring empty pin current: Ix(u1:2)
Ignoring empty pin current: Ix(u1:1)
Ignoring empty pin current: Ix(u2:2)
Ignoring empty pin current: Ix(u2:3)
Ignoring empty pin current: Ix(u2:1)
Ignoring empty pin current: Ix(u1:2)
Ignoring empty pin current: Ix(u1:1)
Ignoring empty pin current: Ix(u2:2)
Ignoring empty pin current: Ix(u2:3)
Ignoring empty pin current: Ix(u2:1)

Date: Fri Jun 23 00:47:19 2023
Total elapsed time: 1.595 seconds.

tnom = 27
temp = 27
method = modified trap
totiter = 5464
traniter = 3985
tranpoints = 1435
accept = 1324
rejected = 111
matrix size = 215
fillins = 2836
solver = Normal
Thread vector: 19.4/11.0[3] 6.2/5.3[3] 6.6/3.7[3] 1.6/2.5[1]  2592/500
Matrix Compiler1: 493.12 KB object code size  91.5/34.8/[24.9]
Matrix Compiler2: 63.37 KB object code size  9.2/5.8/[3.7]

