Circuit: * D:\Uli\FIUBA\Materias\Diseño de Circuitos\TP\Circuit-Design\LDOA_Regulator\Testbench_LDOA.asc

Early termination of direct N-R iteration.
Direct Newton iteration failed to find .op point.  (Use ".option noopiter" to skip.)
Starting Gmin stepping
Gmin = 10
Gmin = 1.07374
vernier = 0.5
Gmin = 0.247111
vernier = 0.25
vernier = 0.125
vernier = 0.0625
vernier = 0.03125
vernier = 0.015625
Gmin = 0.275841
vernier = 0.0078125
vernier = 0.00390625
vernier = 0.00195313
vernier = 0.000976563
vernier = 0.000488281
Gmin = 0
Gmin stepping succeeded in finding the operating point.

Heightened Def Con from 4.88281e-010 to 4.88525e-010
Heightened Def Con from 4.88525e-010 to 1.49048e-009
Heightened Def Con from 1.4944e-009 to 1.51198e-009
Heightened Def Con from 1.51198e-009 to 1.76223e-009
Heightened Def Con from 1.76223e-009 to 1.88919e-009
Heightened Def Con from 1.8931e-009 to 1.89701e-009
Heightened Def Con from 1.89701e-009 to 2.89725e-009
Heightened Def Con from 2.89725e-009 +to 3.91291e-009
Heightened Def Con from 3.91291e-009 to 3.91291e-009
Heightened Def Con from 3.91291e-009 to 4.03816e-009
Heightened Def Con from 4.03816e-009 to 6.0384e-009
Heightened Def Con from 6.03889e-009 +to 6.16587e-009
Heightened Def Con from 6.16588e-009 to 6.1664e-009
Heightened Def Con from 6.16653e-009 to 6.16851e-009
Heightened Def Con from 6.16851e-009 to 7.17047e-009
Heightened Def Con from 7.17737e-009 to 7.30237e-009
Heightened Def Con from 7.30237e-009 to 8.42737e-009
Heightened Def Con from 8.4274e-009 to 8.44327e-009
Heightened Def Con from 8.44328e-009 to 8.47453e-009
Heightened Def Con from 8.47453e-009 to 8.47648e-009
Heightened Def Con from 8.47648e-009 to 8.60343e-009
Heightened Def Con from 8.60349e-009 to 9.61912e-009
Heightened Def Con from 9.61912e-009 to 1.26191e-008
Heightened Def Con from 1.33897e-008 to 1.33899e-008
Heightened Def Con from 1.33899e-008 to 1.43919e-008
Heightened Def Con from 1.43965e-008 to 1.55215e-008
Heightened Def Con from 1.55375e-008 to 1.55395e-008
Heightened Def Con from 1.55395e-008 to 1.65414e-008
Heightened Def Con from 1.65414e-008 to 1.6682e-008
Heightened Def Con from 1.67133e-008 to 1.67153e-008
Heightened Def Con from 1.67153e-008 +to 1.77309e-008
Heightened Def Con from 1.77314e-008 to 1.78567e-008
Heightened Def Con from 1.78567e-008 to 1.88567e-008
Heightened Def Con from 1.88567e-008 to 2.08723e-008
Heightened Def Con from 2.09583e-008 to 2.12083e-008
Heightened Def Con from 2.13552e-008 to 2.13554e-008
Heightened Def Con from 2.13554e-008 to 2.1373e-008
Heightened Def Con from 2.1373e-008 to 2.14043e-008
Heightened Def Con from 2.14062e-008 to 2.14065e-008
Heightened Def Con from 2.14065e-008 to 2.15315e-008
Heightened Def Con from 2.15315e-008 +to 2.25474e-008
Heightened Def Con from 2.26061e-008 to 2.26061e-008
Heightened Def Con from 2.26061e-008 to 2.27467e-008
Heightened Def Con from 2.2778e-008 to 2.3903e-008
Heightened Def Con from 2.39967e-008 to 2.41373e-008
Heightened Def Con from 2.47804e-008 to 2.47807e-008
Heightened Def Con from 2.47807e-008 to 2.49076e-008
Heightened Def Con from 2.49081e-008 to 2.49083e-008
Heightened Def Con from 2.49083e-008 to 2.69103e-008
Heightened Def Con from 2.69108e-008 to 2.70358e-008
Heightened Def Con from 2.70358e-008 to 2.72858e-008
Heightened Def Con from 2.74606e-008 to 2.74645e-008
Heightened Def Con from 2.74646e-008 to 3.04646e-008
Heightened Def Con from 3.25915e-008 to 3.25935e-008
Heightened Def Con from 3.25935e-008 to 3.25974e-008
Heightened Def Con from 3.25974e-008 to 3.25974e-008
Heightened Def Con from 3.25974e-008 to 3.26033e-008
Heightened Def Con from 3.26033e-008 to 3.27439e-008
Heightened Def Con from 3.27444e-008 to 3.29944e-008
Heightened Def Con from 3.3017e-008 to 3.40326e-008
Heightened Def Con from 3.40333e-008 to 3.40333e-008
Heightened Def Con from 3.40333e-008 to 3.40355e-008
Heightened Def Con from 3.40356e-008 to 3.50512e-008
Heightened Def Con from 3.50512e-008 +to 3.70532e-008
Heightened Def Con from 3.70532e-008 to 3.73032e-008
Heightened Def Con from 3.74641e-008 to 3.85891e-008
Heightened Def Con from 3.8593e-008 to 3.8843e-008
Heightened Def Con from 3.8919e-008 to 3.99346e-008
Heightened Def Con from 3.99737e-008 to 4.10987e-008
Heightened Def Con from 4.10987e-008 to 4.13487e-008
Heightened Def Con from 4.13586e-008 to 4.13594e-008
Heightened Def Con from 4.13594e-008 to 4.13906e-008
Heightened Def Con from 4.1422e-008 to 4.3422e-008
Heightened Def Con from 4.3422e-008 to 4.34223e-008
Heightened Def Con from 4.34223e-008 to 4.36723e-008
Heightened Def Con from 4.36747e-008 to 4.47997e-008
Heightened Def Con from 4.54603e-008 to 4.54759e-008
Heightened Def Con from 4.54759e-008 to 4.55072e-008
Heightened Def Con from 4.55178e-008 to 4.55491e-008
Heightened Def Con from 4.55491e-008 to 4.76741e-008
Heightened Def Con from 4.76952e-008 +to 4.88202e-008
Heightened Def Con from 4.88202e-008 to 4.88205e-008
Heightened Def Con from 4.88205e-008 to 4.98205e-008
Heightened Def Con from 4.98205e-008 to 5.18205e-008
Heightened Def Con from 5.18206e-008 ++to 5.19475e-008
Heightened Def Con from 5.19593e-008 to 5.19632e-008
Heightened Def Con from 5.19705e-008 +to 5.29706e-008
Heightened Def Con from 5.29706e-008 to 5.50956e-008
Heightened Def Con from 5.50957e-008 to 5.52226e-008
Heightened Def Con from 5.52226e-008 +to 5.72226e-008
Heightened Def Con from 5.72226e-008 to 5.72539e-008
Heightened Def Con from 5.72539e-008 +to 5.76289e-008
Heightened Def Con from 5.81754e-008 to 5.9191e-008
Heightened Def Con from 5.91962e-008 to 6.21962e-008

Date: Thu Jun 22 00:45:56 2023
Total elapsed time: 1.269 seconds.

tnom = 27
temp = 27
method = modified trap
totiter = 22356
traniter = 20585
tranpoints = 3124
accept = 1834
rejected = 1395
matrix size = 181
fillins = 1862
solver = Normal
Thread vector: 7.4/5.5[3] 2.6/2.1[3] 3.1/2.9[1] 1.0/2.7[1]  2592/500
Matrix Compiler1: 247.89 KB object code size  29.3/9.7/[7.6]
Matrix Compiler2: 45.15 KB object code size  6.1/3.0/[2.5]

