Circuit: * C:\Users\joaqu\Desktop\Circuit-Design\LDOA_Regulator\Testbench_LDOA.asc

Early termination of direct N-R iteration.
Direct Newton iteration failed to find .op point.  (Use ".option noopiter" to skip.)
Starting Gmin stepping
Gmin = 10
vernier = 0.5
vernier = 0.25
Gmin = 2.09715
vernier = 0.125
vernier = 0.0625
vernier = 0.03125
vernier = 0.015625
vernier = 0.0078125
vernier = 0.00390625
vernier = 0.00195313
vernier = 0.000976563
vernier = 0.000488281
Gmin = 0
Gmin = 0
Gmin stepping succeeded in finding the operating point.

Ignoring empty pin current: Ix(u1:2)
Ignoring empty pin current: Ix(u1:1)
Ignoring empty pin current: Ix(u2:2)
Ignoring empty pin current: Ix(u2:3)
Ignoring empty pin current: Ix(u2:1)
Ignoring empty pin current: Ix(u1:2)
Ignoring empty pin current: Ix(u1:1)
Ignoring empty pin current: Ix(u2:2)
Ignoring empty pin current: Ix(u2:3)
Ignoring empty pin current: Ix(u2:1)

Date: Fri Jun 23 19:16:58 2023
Total elapsed time: 1.149 seconds.

tnom = 27
temp = 27
method = modified trap
totiter = 4434
traniter = 3155
tranpoints = 1370
accept = 1274
rejected = 96
matrix size = 217
fillins = 1879
solver = Normal
Thread vector: 16.6/10.6[3] 6.0/4.3[3] 6.0/2.9[3] 1.5/3.1[1]  2592/500
Matrix Compiler1: 243.03 KB object code size  46.3/18.3/[10.8]
Matrix Compiler2: 48.02 KB object code size  9.4/5.7/[3.4]

