Questionable use of curly braces in "r28 0 0 {rl}"
    Error: undefined symbol in: "[rl]"
Circuit: * C:\Users\joaqu\Desktop\Circuit-Design\LDOA_Regulator\Testbench_LDOA_v4.asc

R28: both pins shorted together -- ignoring.
WARNING: Less than two connections to node VREG.  This node is used by V1.
Direct Newton iteration failed to find .op point.  (Use ".option noopiter" to skip.)
Starting Gmin stepping
Increasing initial diagonal Gmin to 100
Gmin = 100
Gmin = 10.7374
Gmin = 1.15292
Gmin = 0.123794
Gmin = 0.0132923
Gmin = 0.00142725
Gmin = 0.00015325
Gmin = 1.6455e-005
Gmin = 1.76685e-006
Gmin = 1.89714e-007
Gmin = 2.03704e-008
Gmin = 2.18725e-009
Gmin = 2.34854e-010
Gmin = 2.52173e-011
Gmin = 2.70769e-012
Gmin = 2.90735e-013
Gmin = 0
Gmin stepping succeeded in finding the operating point.

Ignoring empty pin current: Ix(u3:1)
Ignoring empty pin current: Ix(u3:2)
Ignoring empty pin current: Ix(u1:2)
Ignoring empty pin current: Ix(u1:3)
Ignoring empty pin current: Ix(u1:1)
Ignoring empty pin current: Ix(u2:2)
Ignoring empty pin current: Ix(u2:3)
Ignoring empty pin current: Ix(u2:1)
Ignoring empty pin current: Ix(u4:1)
Ignoring empty pin current: Ix(u4:2)
Ignoring empty pin current: Ix(u5:1)
Ignoring empty pin current: Ix(u5:2)
Ignoring empty pin current: Ix(u3:1)
Ignoring empty pin current: Ix(u3:2)
Ignoring empty pin current: Ix(u1:2)
Ignoring empty pin current: Ix(u1:3)
Ignoring empty pin current: Ix(u1:1)
Ignoring empty pin current: Ix(u2:2)
Ignoring empty pin current: Ix(u2:3)
Ignoring empty pin current: Ix(u2:1)
Ignoring empty pin current: Ix(u4:1)
Ignoring empty pin current: Ix(u4:2)
Ignoring empty pin current: Ix(u5:1)
Ignoring empty pin current: Ix(u5:2)

Date: Fri Jun 23 20:45:19 2023
Total elapsed time: 0.507 seconds.

tnom = 27
temp = 27
method = modified trap
totiter = 13192
traniter = 12711
tranpoints = 5062
accept = 3310
rejected = 1752
matrix size = 111
fillins = 120
solver = Normal
Matrix Compiler1: 12.45 KB object code size  2.4/1.3/[0.7]
Matrix Compiler2: 10.68 KB object code size  1.1/1.6/[0.7]

