Circuit: * D:\Uli\FIUBA\Materias\Diseño de Circuitos\TP\Circuit-Design\LDOA_Regulator\Testbench_LDOA.asc

Early termination of direct N-R iteration.
Direct Newton iteration failed to find .op point.  (Use ".option noopiter" to skip.)
Starting Gmin stepping
Gmin = 10
vernier = 0.5
Gmin = 1.67772
vernier = 0.25
vernier = 0.125
vernier = 0.0625
Gmin = 1.28069
vernier = 0.03125
vernier = 0.015625
vernier = 0.0078125
vernier = 0.00390625
vernier = 0.00195313
vernier = 0.000976563
vernier = 0.000488281
Gmin = 0
Gmin = 0
Gmin stepping succeeded in finding the operating point.

Ignoring empty pin current: Ix(u1:2)
Ignoring empty pin current: Ix(u1:1)
Ignoring empty pin current: Ix(u2:2)
Ignoring empty pin current: Ix(u2:3)
Ignoring empty pin current: Ix(u2:1)
Ignoring empty pin current: Ix(u1:2)
Ignoring empty pin current: Ix(u1:1)
Ignoring empty pin current: Ix(u2:2)
Ignoring empty pin current: Ix(u2:3)
Ignoring empty pin current: Ix(u2:1)

Date: Thu Jun 22 12:37:58 2023
Total elapsed time: 0.842 seconds.

tnom = 27
temp = 27
method = modified trap
totiter = 4932
traniter = 3253
tranpoints = 1390
accept = 1294
rejected = 96
matrix size = 217
fillins = 1834
solver = Normal
Thread vector: 9.6/6.7[3] 4.2/3.5[3] 4.1/2.5[3] 1.1/2.1[1]  2592/500
Matrix Compiler1: 229.44 KB object code size  28.4/9.2/[7.1]
Matrix Compiler2: 47.54 KB object code size  5.6/3.3/[2.6]

