Circuit: * C:\Users\joaqu\Desktop\Circuit-Design\LDOA_Regulator\Vref_v1.asc

Direct Newton iteration for .op point succeeded.

Date: Sat Jun 24 19:59:16 2023
Total elapsed time: 0.125 seconds.

tnom = 27
temp = 27
method = modified trap
totiter = 2111
traniter = 2098
tranpoints = 1050
accept = 1050
rejected = 0
matrix size = 14
fillins = 4
solver = Normal
Matrix Compiler1:      62 opcodes  0.3/[0.3]/0.4
Matrix Compiler2: off  [0.2]/0.7/0.4

