Circuit: * C:\Users\joaqu\Desktop\Circuit-Design\LDOB_Regulator\LDOB_Regulator_v2.asc

Direct Newton iteration failed to find .op point.  (Use ".option noopiter" to skip.)
Starting Gmin stepping
Gmin = 10
Gmin = 1.07374
Gmin = 0.115292
Gmin = 0.0123794
Gmin = 0.00132923
Gmin = 0.000142725
Gmin = 1.5325e-005
Gmin = 1.6455e-006
Gmin = 1.76685e-007
Gmin = 1.89714e-008
Gmin = 2.03704e-009
Gmin = 2.18725e-010
Gmin = 2.34854e-011
Gmin = 2.52173e-012
Gmin = 2.70769e-013
Gmin = 0
Gmin stepping succeeded in finding the operating point.




Date: Mon May 08 21:48:20 2023
Total elapsed time: 0.567 seconds.

tnom = 27
temp = 27
method = modified trap
totiter = 5616
traniter = 5023
tranpoints = 2376
accept = 2276
rejected = 100
matrix size = 219
fillins = 347
solver = Normal
Thread vector: 14.5/11.6[3] 8.1/5.3[3] 4.9/3.2[3] 0.9/1.0[1]  2592/500
Matrix Compiler1: 29.43 KB object code size  7.6/4.1/[2.2]
Matrix Compiler2: 23.99 KB object code size  4.2/6.0/[1.7]

