Circuit: * D:\Uli\FIUBA\Materias\Diseño de Circuitos\TP\Circuit-Design\LDOB_Regulator\LDOB_Regulator_v3.asc

V1: Missing value, assumed 0V @ DC
Early termination of direct N-R iteration.
Direct Newton iteration failed to find .op point.  (Use ".option noopiter" to skip.)
Starting Gmin stepping
Gmin = 10
Gmin = 1.07374
Gmin = 0.115292
Gmin = 0.0123794
Gmin = 0.00132923
Gmin = 0.000142725
Gmin = 1.5325e-005
vernier = 0.5
Gmin = 2.5711e-006
vernier = 0.25
vernier = 0.125
vernier = 0.0625
vernier = 0.03125
vernier = 0.015625
vernier = 0.0078125
Gmin = 2.5711e-006
vernier = 0.00390625
vernier = 0.00195313
vernier = 0.000976563
Gmin = 2.56171e-006
vernier = 0.000488281
Gmin = 0
Gmin stepping failed

Starting source stepping with srcstepmethod=0
Source Step = 3.0303%
Source Step = 33.3333%
Source Step = 63.6364%
Source Step = 93.9394%
Source Step = 96.9815%
Source Step = 97.0111%
Source Step = 97.0407%
Source Step = 97.0703%
Source Step = 97.0999%
Source Step = 97.1295%
Singular matrix:  Check nodes u5:5 and u3:6
   Iteration No. 65
Singular matrix:  Check nodes u3:6 and u1:6
   Iteration No. 1
Singular matrix:  Check nodes u3:6 and u1:6
   Iteration No. 1
Singular matrix:  Check nodes u3:6 and u1:6
   Iteration No. 1
Singular matrix:  Check nodes u5:5 and u3:6
   Iteration No. 1
Singular matrix:  Check nodes u3:6 and u1:6
   Iteration No. 1
Singular matrix:  Check nodes u3:6 and u1:6
   Iteration No. 1
Singular matrix:  Check nodes u5:5 and u3:6
   Iteration No. 1
Singular matrix:  Check node u4:6
   Iteration No. 1
Singular matrix:  Check nodes u3:6 and u1:6
   Iteration No. 1
Starting source stepping with srcstepmethod=1
Source Step = 3.0303%
Source Step = 33.3333%
Source Step = 63.6364%
Source Step = 93.9394%
Source Step = 100%
Source Step = 100%
Source Step = 100%
Singular matrix:  Check node u4:5
   Iteration No. 338
Singular matrix:  Check nodes n016 and u4:6
   Iteration No. 1
Singular matrix:  Check nodes u4:6 and u5:6
   Iteration No. 1
Singular matrix:  Check nodes n016 and u1:6
   Iteration No. 1
Singular matrix:  Check nodes u4:6 and u5:6
   Iteration No. 1
Singular matrix:  Check nodes u4:6 and u5:6
   Iteration No. 1
Singular matrix:  Check nodes u4:6 and u5:6
   Iteration No. 1
Singular matrix:  Check nodes u4:6 and u5:6
   Iteration No. 1
Singular matrix:  Check nodes u4:6 and u5:6
   Iteration No. 1
Source stepping failed

Pseudo Transient succeeded in finding the operating point at 578.304 ms.



Date: Tue Jun 20 17:43:25 2023
Total elapsed time: 2.521 seconds.

tnom = 27
temp = 27
method = trap
totiter = 11203
traniter = 0
tranpoints = 0
accept = 0
rejected = 8
matrix size = 222
fillins = 1846
solver = Normal
Matrix Compiler1: 356.57 KB object code size  40.0/12.5/[12.5]
Matrix Compiler2: 49.27 KB object code size  1.6/1.3/[1.1]

