Circuit: * D:\Uli\FIUBA\Materias\Diseño de Circuitos\TP\Circuit-Design\LDOB_Regulator\LDOB_Regulator_v2.asc

WARNING: Less than two connections to node SELA.  This node is used by VSELA.
Early termination of direct N-R iteration.
Direct Newton iteration failed to find .op point.  (Use ".option noopiter" to skip.)
Starting Gmin stepping
Gmin = 10
Gmin = 1.07374
Gmin = 0.115292
Gmin = 0.0123794
Gmin = 0.00132923
Gmin = 0.000142725
vernier = 0.5
vernier = 0.25
vernier = 0.125
Gmin = 4.67681e-005
vernier = 0.0625
vernier = 0.03125
vernier = 0.0416667
Gmin = 4.36063e-005
vernier = 0.0555555
vernier = 0.074074
Gmin = 3.82064e-005
vernier = 0.0987653
Gmin = 3.08551e-005
vernier = 0.131687
vernier = 0.175583
Gmin = 2.1795e-005
vernier = 0.23411
vernier = 0.312147
Gmin = 1.2634e-005
vernier = 0.156073
vernier = 0.0780367
vernier = 0.0390184
vernier = 0.0195092
vernier = 0.00975459
Singular matrix:  Check node u1:6
   Iteration No. 9
Gmin = 0
Singular matrix:  Check nodes u3:5 and u1:6
   Iteration No. 1
Gmin stepping failed

Starting source stepping with srcstepmethod=0
Source Step = 3.0303%
Source Step = 33.3333%
Source Step = 63.6364%
Source Step = 93.9394%
Singular matrix:  Check node u1:6
   Iteration No. 11
Singular matrix:  Check node u3:6
   Iteration No. 1
Singular matrix:  Check nodes u1:6 and u4:6
   Iteration No. 1
Singular matrix:  Check nodes u3:6 and u4:6
   Iteration No. 1
Singular matrix:  Check nodes u4:6 and u1:6
   Iteration No. 1
Singular matrix:  Check nodes u3:6 and u4:6
   Iteration No. 1
Singular matrix:  Check nodes u3:5 and u3:6
   Iteration No. 1
Singular matrix:  Check nodes u6:5 and u1:6
   Iteration No. 1
Source Step = 100%
Singular matrix:  Check nodes u6:5 and u4:6
   Iteration No. 1
Singular matrix:  Check nodes u3:6 and u3:5
   Iteration No. 1
Singular matrix:  Check nodes u3:6 and u3:5
   Iteration No. 1
Singular matrix:  Check node u1:6
   Iteration No. 1
Starting source stepping with srcstepmethod=1
Source Step = 3.0303%
Source Step = 33.3333%
Source Step = 63.6364%
Source Step = 93.9394%
Source Step = 100%
Singular matrix:  Check node u5:5
   Iteration No. 181
Singular matrix:  Check node u5:5
   Iteration No. 1
Source Step = 100%
Singular matrix:  Check node u5:5
   Iteration No. 1
Singular matrix:  Check node u5:5
   Iteration No. 1
Singular matrix:  Check node u5:5
   Iteration No. 1
Singular matrix:  Check node u5:5
   Iteration No. 1
Singular matrix:  Check node u4:5
   Iteration No. 7
Singular matrix:  Check nodes n010 and u5:6
   Iteration No. 1
Singular matrix:  Check node u3:5
   Iteration No. 1
Source stepping failed

Pseudo Transient succeeded in finding the operating point at 327.689 ms.



Date: Tue Jul 11 20:06:39 2023
Total elapsed time: 1.647 seconds.

tnom = 27
temp = 27
method = modified trap
totiter = 6824
traniter = 4228
tranpoints = 2115
accept = 2070
rejected = 51
matrix size = 215
fillins = 3082
solver = Normal
Thread vector: 8.8/5.2[3] 3.1/2.6[3] 2.7/2.1[3] 0.6/1.3[1]  2592/500
Matrix Compiler1: 811.34 KB object code size  100.4/29.4/[26.1]
Matrix Compiler2: 69.60 KB object code size  2.2/1.7/[1.1]

