Circuit: * D:\Uli\FIUBA\Materias\Diseño de Circuitos\TP\Circuit-Design\LDOB_Regulator\LDOB_Regulator_v2.asc

Early termination of direct N-R iteration.
Direct Newton iteration failed to find .op point.  (Use ".option noopiter" to skip.)
Starting Gmin stepping
Gmin = 10
Gmin = 1.07374
Gmin = 0.115292
Gmin = 0.0123794
Gmin = 0.00132923
Gmin = 0.000142725
vernier = 0.5
vernier = 0.25
Gmin = 4.4017e-005
vernier = 0.125
vernier = 0.166667
Gmin = 3.40576e-005
vernier = 0.222222
vernier = 0.296296
Gmin = 1.96699e-005
vernier = 0.395061
Gmin = 8.39915e-006
vernier = 0.197531
vernier = 0.0987653
vernier = 0.0493827
vernier = 0.0658435
Gmin = 8.40069e-006
vernier = 0.0329218
vernier = 0.0164609
vernier = 0.0219478
Gmin = 8.22922e-006
vernier = 0.0292638
vernier = 0.0390184
Gmin = 7.67395e-006
vernier = 0.0520245
Gmin = 6.85298e-006
vernier = 0.0693659
vernier = 0.0924879
Gmin = 5.6975e-006
vernier = 0.123317
vernier = 0.164423
Gmin = 4.2588e-006
vernier = 0.21923
Gmin = 2.66653e-006
vernier = 0.292307
vernier = 0.389743
Gmin = 1.25271e-006
vernier = 0.519657
vernier = 0.692876
Gmin = 3.88206e-007
vernier = 0.923834
Gmin = 6.17945e-008
vernier = 1
Gmin = 6.73777e-009
Gmin = 7.23463e-010
Gmin = 7.76812e-011
Gmin = 8.34096e-012
Gmin = 8.95604e-013
Gmin = 0
Gmin = 0
Gmin stepping succeeded in finding the operating point.

Heightened Def Con from 0.01 +to 0.01
Heightened Def Con from 0.01 to 0.01
Heightened Def Con from 0.0100004 to 0.0100004
Heightened Def Con from 0.0100004 ++to 0.0100004
Heightened Def Con from 0.0100004 ++to 0.0100004
Heightened Def Con from 0.0100004 +to 0.0100004
Heightened Def Con from 0.0100004 to 0.0100004
Heightened Def Con from 0.0100004 to 0.0100004
Heightened Def Con from 0.0100004 to 0.0100004
Heightened Def Con from 0.0100004 ++++++to 0.0100004
Heightened Def Con from 0.0100004 to 0.0100004
Heightened Def Con from 0.0100004 +to 0.0100004
Heightened Def Con from 0.0100004 +++++++++++to 0.0100004
Heightened Def Con from 0.0100004 ++++++++++++++++to 0.0100004
Heightened Def Con from 0.0100004 to 0.0100004
Heightened Def Con from 0.0200019 ++++++++++++++to 0.0200019



Date: Fri Jun 09 20:37:14 2023
Total elapsed time: 0.637 seconds.

tnom = 27
temp = 27
method = modified trap
totiter = 16156
traniter = 14278
tranpoints = 3453
accept = 2670
rejected = 853
matrix size = 222
fillins = 415
solver = Normal
Thread vector: 9.2/5.5[3] 3.4/2.6[3] 2.6/2.1[3] 0.6/0.9[1]  2592/500
Matrix Compiler1: 33.89 KB object code size  6.0/1.7/[1.6]
Matrix Compiler2: 25.29 KB object code size  1.4/1.9/[1.2]

