Circuit: * D:\Uli\FIUBA\Materias\Diseño de Circuitos\TP\Circuit-Design\BUCK\switching_average\boost_average_CL.asc

Direct Newton iteration failed to find .op point.  (Use ".option noopiter" to skip.)
Starting Gmin stepping
Gmin = 10
Gmin = 1.07374
Gmin = 0.115292
Gmin = 0.0123794
Gmin = 0.00132923
Gmin = 0.000142725
Gmin = 1.5325e-005
Gmin = 1.6455e-006
Gmin = 1.76685e-007
Gmin = 1.89714e-008
Gmin = 2.03704e-009
Gmin = 2.18725e-010
Gmin = 2.34854e-011
Gmin = 2.52173e-012
Gmin = 2.70769e-013
Gmin = 0
Gmin stepping succeeded in finding the operating point.

Ignoring empty pin current: Ix(u1:5)
Ignoring empty pin current: Ix(u1:5)
.step rload=8
.step rload=20

Date: Fri May 26 20:56:43 2023
Total elapsed time: 0.433 seconds.

tnom = 27
temp = 27
method = modified trap
totiter = 24538
traniter = 24052
tranpoints = 12027
accept = 12027
rejected = 0
matrix size = 26
fillins = 23
solver = Normal
Matrix Compiler1:     111 opcodes  0.4/0.2/[0.2]
Matrix Compiler2: 2.30 KB object code size  0.2/0.2/[0.1]

