Circuit: * D:\Uli\FIUBA\Materias\Diseño de Circuitos\TP\Circuit-Design\BUCK\switching_average\boost_switching_CL.asc

Direct Newton iteration failed to find .op point.  (Use ".option noopiter" to skip.)
Starting Gmin stepping
Gmin = 10
Gmin = 1.07374
Gmin = 0.115292
Gmin = 0.0123794
Gmin = 0.00132923
Gmin = 0.000142725
Gmin = 1.5325e-005
Gmin = 1.6455e-006
Gmin = 1.76685e-007
Gmin = 1.89714e-008
Gmin = 2.03704e-009
Gmin = 2.18725e-010
Gmin = 2.34854e-011
Gmin = 2.52173e-012
Gmin = 2.70769e-013
Gmin = 0
Gmin stepping succeeded in finding the operating point.

Ignoring empty pin current: Ix(u1:1)
Ignoring empty pin current: Ix(u1:2)
Ignoring empty pin current: Ix(u1:3)
Ignoring empty pin current: Ix(u1:4)
Ignoring empty pin current: Ix(u1:5)
Ignoring empty pin current: Ix(u2:vc)
Ignoring empty pin current: Ix(u1:1)
Ignoring empty pin current: Ix(u1:2)
Ignoring empty pin current: Ix(u1:3)
Ignoring empty pin current: Ix(u1:4)
Ignoring empty pin current: Ix(u1:5)
Ignoring empty pin current: Ix(u2:vc)
.step rload=8
Heightened Def Con from 0.00308397 to 0.00308397
.step rload=20

Date: Mon May 29 18:54:32 2023
Total elapsed time: 59.299 seconds.

tnom = 27
temp = 27
method = modified trap
totiter = 4535477
traniter = 4535010
tranpoints = 1360814
accept = 1137155
rejected = 223659
matrix size = 48
fillins = 25
solver = Normal
Thread vector: 5.6/4.1[2] 1.3/1.5[1] 0.9/1.1[1] 0.1/1.0[1]  2592/500
Matrix Compiler1: 2.96 KB object code size  0.6/0.2/[0.2]
Matrix Compiler2: 4.10 KB object code size  0.3/0.3/[0.2]

