Circuit: * C:\Users\joaqu\Desktop\Circuit-Design\BUCK\switching_average\boost_average.asc

Direct Newton iteration for .op point succeeded.
Ignoring empty pin current: Ix(u1:5)
Ignoring empty pin current: Ix(u1:5)

Date: Fri May 26 19:27:31 2023
Total elapsed time: 0.056 seconds.

tnom = 27
temp = 27
method = trap
totiter = 35
traniter = 0
tranpoints = 0
accept = 0
rejected = 0
matrix size = 10
fillins = 4
solver = Normal
Matrix Compiler1:      26 opcodes
Matrix Compiler2:      61 opcodes
